Exemplos/ULAS628/ssdMT_ULAS628.dss
New line.mt652607 phases=3 bus1=171314697.1.2.3 bus2=5435609.1.2.3 linecode=CAB108_3_3_3 length=0.029393 units=km 
New line.mt654763 phases=3 bus1=1582788B.1.2.3 bus2=1582795B.1.2.3 linecode=CABA08_3_3_3 length=0.021457999999999998 units=km 
New line.mt654770 phases=3 bus1=1582788B.1.2.3 bus2=1582816B.1.2.3 linecode=CABA08_3_3_3 length=0.030787 units=km 
New line.mt654791 phases=3 bus1=1582809B.1.2.3 bus2=171314697.1.2.3 linecode=CABA08_3_3_3 length=0.024985 units=km 
New line.mt654798 phases=3 bus1=171314695.1.2.3 bus2=1582795B.1.2.3 linecode=CABA08_3_3_3 length=0.023331 units=km 
New line.mt654819 phases=3 bus1=5379539.1.2.3 bus2=171314696.1.2.3 linecode=CABA08_3_3_3 length=0.024683 units=km 
New line.mt654826 phases=3 bus1=1582851B.1.2.3 bus2=171314695.1.2.3 linecode=CABA08_3_3_3 length=0.028982 units=km 
New line.mt654840 phases=3 bus1=1582858B.1.2.3 bus2=1582851B.1.2.3 linecode=CABA08_3_3_3 length=0.023331 units=km 
New line.mt654882 phases=3 bus1=1582900B.1.2.3 bus2=1582858B.1.2.3 linecode=CABA08_3_3_3 length=0.028267 units=km 
New line.mt654896 phases=3 bus1=1582921B.1.2.3 bus2=1582900B.1.2.3 linecode=CABA08_3_3_3 length=0.026890999999999998 units=km 
New line.mt656492 phases=3 bus1=1585182C.1.2.3 bus2=157907967.1.2.3 linecode=CAB108_3_3_3 length=0.025791 units=km 
New line.mt656499 phases=3 bus1=1585182C.1.2.3 bus2=1585182B.1.2.3 linecode=CAB108_3_3_3 length=0.0005 units=km 
New line.mt656520 phases=3 bus1=157907966.1.2.3 bus2=1585182C.1.2.3 linecode=CAB108_3_3_3 length=0.023587 units=km 
New line.mt656562 phases=3 bus1=171314691.1.2.3 bus2=171314692.1.2.3 linecode=CABA08_3_3_3 length=0.029393 units=km 
New line.mt656576 phases=3 bus1=171314692.1.2.3 bus2=3142297B.1.2.3 linecode=CABA08_3_3_3 length=0.024398 units=km 
New line.mt656597 phases=3 bus1=1585245B.1.2.3 bus2=1589907B.1.2.3 linecode=CABA08_3_3_3 length=0.017794 units=km 
New line.mt657850 phases=3 bus1=1587338B.1.2.3 bus2=1587345B.1.2.3 linecode=CABA08_3_3_3 length=0.029393 units=km 
New line.mt657857 phases=3 bus1=1587345B.1.2.3 bus2=1587359B.1.2.3 linecode=CABA08_3_3_3 length=0.025791 units=km 
New line.mt657864 phases=3 bus1=1587359B.1.2.3 bus2=1587373B.1.2.3 linecode=CABA08_3_3_3 length=0.02219 units=km 
New line.mt657871 phases=3 bus1=1587373B.1.2.3 bus2=1587380B.1.2.3 linecode=CABA08_3_3_3 length=0.007207 units=km 
New line.mt657878 phases=3 bus1=1587380B.1.2.3 bus2=1587387B.1.2.3 linecode=CABA08_3_3_3 length=0.032995 units=km 
New line.mt657885 phases=3 bus1=1587387B.1.2.3 bus2=171314698.1.2.3 linecode=CABA08_3_3_3 length=0.029393 units=km 
New line.mt657892 phases=3 bus1=171314698.1.2.3 bus2=1587422B.1.2.3 linecode=CABA08_3_3_3 length=0.030787 units=km 
New line.mt657899 phases=3 bus1=1587422B.1.2.3 bus2=1587436B.1.2.3 linecode=CABA08_3_3_3 length=0.027186 units=km 
New line.mt657906 phases=3 bus1=1587436B.1.2.3 bus2=1587450B.1.2.3 linecode=CABA08_3_3_3 length=0.032183 units=km 
New line.mt657913 phases=3 bus1=1587450B.1.2.3 bus2=1587478B.1.2.3 linecode=CABA08_3_3_3 length=0.028582999999999997 units=km 
New line.mt657920 phases=3 bus1=1587471B.1.2.3 bus2=1590005B.1.2.3 linecode=CABA08_3_3_3 length=0.028582999999999997 units=km 
New line.mt657927 phases=3 bus1=1587478B.1.2.3 bus2=1587471B.1.2.3 linecode=CABA08_3_3_3 length=0.030787 units=km 
New line.mt659229 phases=3 bus1=1589837B.1.2.3 bus2=1582921B.1.2.3 linecode=CABA08_3_3_3 length=0.028982 units=km 
New line.mt659243 phases=3 bus1=1589844B.1.2.3 bus2=1589837B.1.2.3 linecode=CABA08_3_3_3 length=0.026890999999999998 units=km 
New line.mt659257 phases=3 bus1=171314694.1.2.3 bus2=5868363.1.2.3 linecode=CABA08_3_3_3 length=0.022789999999999998 units=km 
New line.mt659264 phases=3 bus1=171314694.1.2.3 bus2=1589844B.1.2.3 linecode=CABA08_3_3_3 length=0.004997 units=km 
New line.mt659271 phases=3 bus1=171314694.1.2.3 bus2=1589858B.1.2.3 linecode=CABA08_3_3_3 length=0.005382 units=km 
New line.mt659278 phases=3 bus1=1589865B.1.2.3 bus2=171314694.1.2.3 linecode=CABA08_3_3_3 length=0.027642 units=km 
New line.mt659292 phases=3 bus1=171314693.1.2.3 bus2=1589865B.1.2.3 linecode=CABA08_3_3_3 length=0.032538 units=km 
New line.mt659306 phases=3 bus1=1589886B.1.2.3 bus2=171314693.1.2.3 linecode=CABA08_3_3_3 length=0.03395 units=km 
New line.mt659320 phases=3 bus1=1589893B.1.2.3 bus2=1589886B.1.2.3 linecode=CABA08_3_3_3 length=0.030461 units=km 
New line.mt659355 phases=3 bus1=1589907B.1.2.3 bus2=1589893B.1.2.3 linecode=CABA08_3_3_3 length=0.023587 units=km 
New line.mt659453 phases=3 bus1=2952961.1.2.3 bus2=171314700.1.2.3 linecode=CAB108_3_3_3 length=0.023008 units=km 
New line.mt659460 phases=3 bus1=171314699.1.2.3 bus2=171314700.1.2.3 linecode=CABA08_3_3_3 length=0.013031000000000001 units=km 
New line.mt659467 phases=3 bus1=171314699.1.2.3 bus2=1590005B.1.2.3 linecode=CABA08_3_3_3 length=0.0064 units=km 
New line.mt659474 phases=3 bus1=171314699.1.2.3 bus2=1590019B.1.2.3 linecode=CABA08_3_3_3 length=0.025224 units=km 
New line.mt659481 phases=3 bus1=1590019B.1.2.3 bus2=1792396B.1.2.3 linecode=CABA08_3_3_3 length=0.027186 units=km 
New line.mt659488 phases=3 bus1=171314702.1.2.3 bus2=171314699.1.2.3 linecode=CABA08_3_3_3 length=0.024985 units=km 
New line.mt660363 phases=3 bus1=1592245B.1.2.3 bus2=1592266B.1.2.3 linecode=CABA08_3_3_3 length=0.01859 units=km 
New line.mt660370 phases=3 bus1=1592252B.1.2.3 bus2=1595815B.1.2.3 linecode=CABA08_3_3_3 length=0.032995 units=km 
New line.mt660377 phases=3 bus1=1592259B.1.2.3 bus2=1592252B.1.2.3 linecode=CABA08_3_3_3 length=0.034110999999999995 units=km 
New line.mt660384 phases=3 bus1=1592266B.1.2.3 bus2=171314705.1.2.3 linecode=CABA08_3_3_3 length=0.0072759999999999995 units=km 
New line.mt660391 phases=3 bus1=171314705.1.2.3 bus2=1592259B.1.2.3 linecode=CABA08_3_3_3 length=0.033356000000000004 units=km 
New line.mt660398 phases=3 bus1=1592280B.1.2.3 bus2=171314705.1.2.3 linecode=CABA08_3_3_3 length=0.029815 units=km 
New line.mt660895 phases=3 bus1=166015648.1.2.3 bus2=1593085B.1.2.3 linecode=CABA08_3_3_3 length=0.030574999999999998 units=km 
New line.mt660902 phases=3 bus1=1593085B.1.2.3 bus2=166015647.1.2.3 linecode=CABA08_3_3_3 length=0.008058 units=km 
New line.mt660909 phases=3 bus1=1593092B.1.2.3 bus2=151024615.1.2.3 linecode=CABA06_3_3_3 length=0.030997 units=km 
New line.mt660916 phases=3 bus1=1593092B.1.2.3 bus2=1595374B.1.2.3 linecode=CAB102_3_3_3 length=0.008596999999999999 units=km 
New line.mt660923 phases=3 bus1=151024614.1.2.3 bus2=1593092B.1.2.3 linecode=CABA06_3_3_3 length=0.027056999999999998 units=km 
New line.mt660930 phases=3 bus1=126389757.1.2.3 bus2=126389764.1.2.3 linecode=CABA06_3_3_3 length=0.028143 units=km 
New line.mt661322 phases=3 bus1=1593820B.1.2.3 bus2=151024616.1.2.3 linecode=CAB102_3_3_3 length=0.030395 units=km 
New line.mt661329 phases=3 bus1=1593827B.1.2.3 bus2=1593820B.1.2.3 linecode=CAB102_3_3_3 length=0.03352 units=km 
New line.mt661336 phases=3 bus1=1593834B.1.2.3 bus2=1593827B.1.2.3 linecode=CAB102_3_3_3 length=0.034692 units=km 
New line.mt661343 phases=3 bus1=1593848B.1.2.3 bus2=1593834B.1.2.3 linecode=CAB102_3_3_3 length=0.0078060000000000004 units=km 
New line.mt661350 phases=3 bus1=151024615.1.2.3 bus2=1593848B.1.2.3 linecode=CAB102_3_3_3 length=0.026984 units=km 
New line.mt661637 phases=3 bus1=1594226B.1.2.3 bus2=1594261B.1.2.3 linecode=CABA08_3_3_3 length=0.030997 units=km 
New line.mt661672 phases=3 bus1=1594261B.1.2.3 bus2=153299204.1.2.3 linecode=CABA08_3_3_3 length=0.030065 units=km 
New line.mt661679 phases=3 bus1=153299203.1.2.3 bus2=1594226B.1.2.3 linecode=CABA08_3_3_3 length=0.022789999999999998 units=km 
New line.mt662393 phases=3 bus1=1595367B.1.2.3 bus2=1595360B.1.2.3 linecode=CAB102_3_3_3 length=0.03352 units=km 
New line.mt662400 phases=3 bus1=1595374B.1.2.3 bus2=1595367B.1.2.3 linecode=CAB102_3_3_3 length=0.030395 units=km 
New line.mt662624 phases=3 bus1=171314708.1.2.3 bus2=171314710.1.2.3 linecode=CAB107_3_3_3 length=0.037179000000000004 units=km 
New line.mt662631 phases=3 bus1=1595815B.1.2.3 bus2=1595822B.1.2.3 linecode=CABA08_3_3_3 length=0.033993999999999996 units=km 
New line.mt662638 phases=3 bus1=1595822B.1.2.3 bus2=171314706.1.2.3 linecode=CABA08_3_3_3 length=0.02219 units=km 
New line.mt662645 phases=3 bus1=171314706.1.2.3 bus2=171314708.1.2.3 linecode=CABA08_3_3_3 length=0.006704 units=km 
New line.mt662652 phases=3 bus1=171314706.1.2.3 bus2=171314709.1.2.3 linecode=CABA08_3_3_3 length=0.024315999999999997 units=km 
New line.mt662659 phases=3 bus1=171314709.1.2.3 bus2=1595843B.1.2.3 linecode=CABA08_3_3_3 length=0.0245 units=km 
New line.mt662666 phases=3 bus1=1595843B.1.2.3 bus2=126389323.1.2.3 linecode=CABA08_3_3_3 length=0.0245 units=km 
New line.mt663107 phases=3 bus1=171314703.1.2.3 bus2=171314702.1.2.3 linecode=CAB108_3_3_3 length=0.032995 units=km 
New line.mt663163 phases=3 bus1=171314707.1.2.3 bus2=1592280B.1.2.3 linecode=CABA08_3_3_3 length=0.027876 units=km 
New line.mt663436 phases=3 bus1=1597376B.1.2.3 bus2=1585245B.1.2.3 linecode=CABA08_3_3_3 length=0.030591999999999998 units=km 
New line.mt663443 phases=3 bus1=1597376B.1.2.3 bus2=3142297B.1.2.3 linecode=CABA08_3_3_3 length=0.026909 units=km 
New line.mt664388 phases=3 bus1=153299204.1.2.3 bus2=1599056B.1.2.3 linecode=CABA08_3_3_3 length=0.029948 units=km 
New line.mt664395 phases=3 bus1=1599056B.1.2.3 bus2=1599070B.1.2.3 linecode=CABA08_3_3_3 length=0.031366 units=km 
New line.mt664402 phases=3 bus1=1599070B.1.2.3 bus2=153299205.1.2.3 linecode=CABA08_3_3_3 length=0.029393 units=km 
New line.mt664409 phases=3 bus1=153299205.1.2.3 bus2=1599084B.1.2.3 linecode=CABA08_3_3_3 length=0.030787 units=km 
New line.mt664416 phases=3 bus1=1599084B.1.2.3 bus2=1599091B.1.2.3 linecode=CABA08_3_3_3 length=0.029393 units=km 
New line.mt664423 phases=3 bus1=1599091B.1.2.3 bus2=1599098B.1.2.3 linecode=CABA08_3_3_3 length=0.031603 units=km 
New line.mt664430 phases=3 bus1=1599098B.1.2.3 bus2=1599105B.1.2.3 linecode=CABA08_3_3_3 length=0.029393 units=km 
New line.mt664437 phases=3 bus1=1599105B.1.2.3 bus2=1601646B.1.2.3 linecode=CABA08_3_3_3 length=0.027186 units=km 
New line.mt665501 phases=3 bus1=166015646.1.2.3 bus2=149563960.1.2.3 linecode=CABA08_3_3_3 length=0.034906999999999994 units=km 
New line.mt665774 phases=3 bus1=166015645.1.2.3 bus2=166015646.1.2.3 linecode=CABA08_3_3_3 length=0.005997 units=km 
New line.mt665781 phases=3 bus1=166015645.1.2.3 bus2=149564521.1.2.3 linecode=CABA08_3_3_3 length=0.031238 units=km 
New line.mt665788 phases=3 bus1=166015645.1.2.3 bus2=1601324B.1.2.3 linecode=CABA08_3_3_3 length=0.005096 units=km 
New line.mt665956 phases=3 bus1=1601646B.1.2.3 bus2=153299206.1.2.3 linecode=CABA08_3_3_3 length=0.004997 units=km 
New line.mt666831 phases=3 bus1=1603277B.1.2.3 bus2=126389855.1.2.3 linecode=CAB102_3_3_3 length=0.02219 units=km 
New line.mt666838 phases=3 bus1=1603284B.1.2.3 bus2=1603277B.1.2.3 linecode=CAB102_3_3_3 length=0.034387999999999995 units=km 
New line.mt666845 phases=3 bus1=1603291B.1.2.3 bus2=1603284B.1.2.3 linecode=CAB102_3_3_3 length=0.02219 units=km 
New line.mt667293 phases=3 bus1=1604215B.1.2.3 bus2=5476762.1.2.3 linecode=CABA08_3_3_3 length=0.032737 units=km 
New line.mt668336 phases=3 bus1=126389841.1.2.3 bus2=126389848.1.2.3 linecode=CAB102_3_3_3 length=0.004997 units=km 
New line.mt668343 phases=3 bus1=126389841.1.2.3 bus2=1603291B.1.2.3 linecode=CAB102_3_3_3 length=0.004997 units=km 
New line.mt668350 phases=3 bus1=126389841.1.2.3 bus2=1605972B.1.2.3 linecode=CAB102_3_3_3 length=0.023008 units=km 
New line.mt668357 phases=3 bus1=1605972B.1.2.3 bus2=126389862.1.2.3 linecode=CAB102_3_3_3 length=0.027186 units=km 
New line.mt668364 phases=3 bus1=1605979B.1.2.3 bus2=126389841.1.2.3 linecode=CAB102_3_3_3 length=0.023587 units=km 
New line.mt668371 phases=3 bus1=1605993B.1.2.3 bus2=1605979B.1.2.3 linecode=CAB102_3_3_3 length=0.029393 units=km 
New line.mt668756 phases=3 bus1=156288634.1.2.3 bus2=156288635.1.2.3 linecode=CABA08_3_3_3 length=0.023523 units=km 
New line.mt668763 phases=3 bus1=1606707B.1.2.3 bus2=156288634.1.2.3 linecode=CABA08_3_3_3 length=0.034155 units=km 
New line.mt669680 phases=3 bus1=126389372.1.2.3 bus2=1608345B.1.2.3 linecode=CABA08_3_3_3 length=0.032995 units=km 
New line.mt669687 phases=3 bus1=1608345B.1.2.3 bus2=158527385.1.2.3 linecode=CABA08_3_3_3 length=0.034387999999999995 units=km 
New line.mt669694 phases=3 bus1=158527385.1.2.3 bus2=1608359B.1.2.3 linecode=CABA08_3_3_3 length=0.032183 units=km 
New line.mt669701 phases=3 bus1=1608359B.1.2.3 bus2=126389379.1.2.3 linecode=CABA08_3_3_3 length=0.032183 units=km 
New line.mt669708 phases=3 bus1=1608366B.1.2.3 bus2=1605993B.1.2.3 linecode=CAB102_3_3_3 length=0.027186 units=km 
New line.mt669715 phases=3 bus1=126389834.1.2.3 bus2=1608366B.1.2.3 linecode=CAB102_3_3_3 length=0.007067 units=km 
New line.mt669722 phases=3 bus1=126389379.1.2.3 bus2=1608380B.1.2.3 linecode=CABA08_3_3_3 length=0.028582999999999997 units=km 
New line.mt669729 phases=3 bus1=1608380B.1.2.3 bus2=158527386.1.2.3 linecode=CABA08_3_3_3 length=0.027186 units=km 
New line.mt669736 phases=3 bus1=158527386.1.2.3 bus2=1608394B.1.2.3 linecode=CABA08_3_3_3 length=0.026611 units=km 
New line.mt669743 phases=3 bus1=1608394B.1.2.3 bus2=1608401B.1.2.3 linecode=CABA08_3_3_3 length=0.028582999999999997 units=km 
New line.mt669750 phases=3 bus1=1608401B.1.2.3 bus2=1608408B.1.2.3 linecode=CABA08_3_3_3 length=0.028001 units=km 
New line.mt669757 phases=3 bus1=1608408B.1.2.3 bus2=158527387.1.2.3 linecode=CABA08_3_3_3 length=0.025791 units=km 
New line.mt669764 phases=3 bus1=158527387.1.2.3 bus2=1608422B.1.2.3 linecode=CABA08_3_3_3 length=0.031745 units=km 
New line.mt669771 phases=3 bus1=158527387.1.2.3 bus2=126389407.1.2.3 linecode=CABA06_3_3_3 length=0.007067 units=km 
New line.mt669778 phases=3 bus1=1608422B.1.2.3 bus2=1612118B.1.2.3 linecode=CABA08_3_3_3 length=0.029137 units=km 
New line.mt670562 phases=3 bus1=152974792.1.2.3 bus2=149564546.1.2.3 linecode=CABA08_3_3_3 length=0.021827000000000003 units=km 
New line.mt670569 phases=3 bus1=1609997B.1.2.3 bus2=152974791.1.2.3 linecode=CABA08_3_3_3 length=0.031029 units=km 
New line.mt670576 phases=3 bus1=1610004B.1.2.3 bus2=1609997B.1.2.3 linecode=CABA08_3_3_3 length=0.029815 units=km 
New line.mt670583 phases=3 bus1=1610011B.1.2.3 bus2=1610004B.1.2.3 linecode=CABA08_3_3_3 length=0.028617999999999998 units=km 
New line.mt670590 phases=3 bus1=1610018B.1.2.3 bus2=1610011B.1.2.3 linecode=CABA08_3_3_3 length=0.031029 units=km 
New line.mt670597 phases=3 bus1=1610018B.1.2.3 bus2=152974790.1.2.3 linecode=CABA08_3_3_3 length=0.045982 units=km 
New line.mt670639 phases=3 bus1=1610060B.1.2.3 bus2=1610074B.1.2.3 linecode=CABA06_3_3_3 length=0.013446 units=km 
New line.mt670646 phases=3 bus1=129828626.1.2.3 bus2=1610060B.1.2.3 linecode=CABA06_3_3_3 length=0.016543 units=km 
New line.mt670653 phases=3 bus1=129828626.1.2.3 bus2=1615933B.1.2.3 linecode=CABA06_3_3_3 length=0.010192 units=km 
New line.mt670660 phases=3 bus1=1610074B.1.2.3 bus2=129828633.1.2.3 linecode=CABA06_3_3_3 length=0.023331 units=km 
New line.mt670737 phases=3 bus1=126389470.1.2.3 bus2=1606707B.1.2.3 linecode=CABA08_3_3_3 length=0.028617999999999998 units=km 
New line.mt670744 phases=3 bus1=129845412.1.2.3 bus2=129845419.1.2.3 linecode=CABA06_3_3_3 length=0.015802 units=km 
New line.mt670758 phases=3 bus1=164351431.1.2.3 bus2=156288544.1.2.3 linecode=CABA08_3_3_3 length=0.022658 units=km 
New line.mt670765 phases=3 bus1=164351429.1.2.3 bus2=164351431.1.2.3 linecode=CABA08_3_3_3 length=0.026233 units=km 
New line.mt670772 phases=3 bus1=164351429.1.2.3 bus2=164351432.1.2.3 linecode=CAB102_3_3_3 length=0.00905 units=km 
New line.mt671878 phases=3 bus1=1612118B.1.2.3 bus2=1612132B.1.2.3 linecode=CABA08_3_3_3 length=0.028844 units=km 
New line.mt671885 phases=3 bus1=1612125B.1.2.3 bus2=1782708B.1.2.3 linecode=CABA08_3_3_3 length=0.025693999999999998 units=km 
New line.mt671892 phases=3 bus1=1612132B.1.2.3 bus2=1612139B.1.2.3 linecode=CABA08_3_3_3 length=0.027056999999999998 units=km 
New line.mt671899 phases=3 bus1=1612139B.1.2.3 bus2=158527388.1.2.3 linecode=CABA08_3_3_3 length=0.023985 units=km 
New line.mt671906 phases=3 bus1=158527388.1.2.3 bus2=1612153B.1.2.3 linecode=CABA08_3_3_3 length=0.020013000000000003 units=km 
New line.mt671913 phases=3 bus1=1612153B.1.2.3 bus2=1612160B.1.2.3 linecode=CABA08_3_3_3 length=0.029981999999999998 units=km 
New line.mt671920 phases=3 bus1=1612160B.1.2.3 bus2=1612167B.1.2.3 linecode=CABA08_3_3_3 length=0.027983 units=km 
New line.mt671927 phases=3 bus1=1612167B.1.2.3 bus2=1612125B.1.2.3 linecode=CABA08_3_3_3 length=0.031126 units=km 
New line.mt673474 phases=3 bus1=129824307.1.2.3 bus2=1615282B.1.2.3 linecode=CABA08_3_3_3 length=0.019093 units=km 
New line.mt673481 phases=3 bus1=1615282B.1.2.3 bus2=5443995.1.2.3 linecode=CABA08_3_3_3 length=0.029948 units=km 
New line.mt673796 phases=3 bus1=1615933B.1.2.3 bus2=1615940B.1.2.3 linecode=CABA06_3_3_3 length=0.030395 units=km 
New line.mt673803 phases=3 bus1=1615940B.1.2.3 bus2=1615947B.1.2.3 linecode=CABA06_3_3_3 length=0.028617999999999998 units=km 
New line.mt673810 phases=3 bus1=1615947B.1.2.3 bus2=1615954B.1.2.3 linecode=CABA06_3_3_3 length=0.034864 units=km 
New line.mt673817 phases=3 bus1=1615954B.1.2.3 bus2=129828640.1.2.3 linecode=CABA06_3_3_3 length=0.032183 units=km 
New line.mt741374 phases=3 bus1=164350312.1.2.3 bus2=164350313.1.2.3 linecode=CAB102_3_3_3 length=0.026816 units=km 
New line.mt741381 phases=3 bus1=1745482B.1.2.3 bus2=164350314.1.2.3 linecode=CAB102_3_3_3 length=0.027278 units=km 
New line.mt741388 phases=3 bus1=1745489B.1.2.3 bus2=1745482B.1.2.3 linecode=CAB102_3_3_3 length=0.030395 units=km 
New line.mt741395 phases=3 bus1=1745496B.1.2.3 bus2=1745489B.1.2.3 linecode=CAB102_3_3_3 length=0.028161000000000002 units=km 
New line.mt741402 phases=3 bus1=1745503B.1.2.3 bus2=1745496B.1.2.3 linecode=CAB102_3_3_3 length=0.029512 units=km 
New line.mt741409 phases=3 bus1=164350313.1.2.3 bus2=1745503B.1.2.3 linecode=CAB102_3_3_3 length=0.028161000000000002 units=km 
New line.mt741493 phases=3 bus1=1745608B.1.2.3 bus2=1745601B.1.2.3 linecode=CABA08_3_3_3 length=0.028635999999999998 units=km 
New line.mt760876 phases=3 bus1=164351427.1.2.3 bus2=164351428.1.2.3 linecode=CABA08_3_3_3 length=0.026385000000000002 units=km 
New line.mt760883 phases=3 bus1=1782708B.1.2.3 bus2=126389421.1.2.3 linecode=CABA08_3_3_3 length=0.026233 units=km 
New line.mt760890 phases=3 bus1=164351428.1.2.3 bus2=164351429.1.2.3 linecode=CABA08_3_3_3 length=0.024985 units=km 
New line.mt760897 phases=3 bus1=164351428.1.2.3 bus2=129824307.1.2.3 linecode=CABA08_3_3_3 length=0.040828 units=km 
New line.mt760904 phases=3 bus1=164351428.1.2.3 bus2=1745608B.1.2.3 linecode=CABA08_3_3_3 length=0.022658 units=km 
New line.mt762563 phases=3 bus1=126389813.1.2.3 bus2=126389820.1.2.3 linecode=CABA06_3_3_3 length=0.027186 units=km 
New line.mt765755 phases=3 bus1=1792396B.1.2.3 bus2=171314701.1.2.3 linecode=CABA08_3_3_3 length=0.029981999999999998 units=km 
New line.mt765762 phases=3 bus1=171314701.1.2.3 bus2=1592224B.1.2.3 linecode=CABA08_3_3_3 length=0.028582999999999997 units=km 
New line.mt1794384 phases=3 bus1=153299206.1.2.3 bus2=153299207.1.2.3 linecode=CABA08_3_3_3 length=0.042775 units=km 
New line.mt1794391 phases=3 bus1=153299206.1.2.3 bus2=2952975.1.2.3 linecode=CABA08_3_3_3 length=0.004997 units=km 
New line.mt1794398 phases=3 bus1=153299206.1.2.3 bus2=153299208.1.2.3 linecode=CABA08_3_3_3 length=0.058213 units=km 
New line.mt1794405 phases=3 bus1=152974790.1.2.3 bus2=1606679B.1.2.3 linecode=CABA08_3_3_3 length=0.022789999999999998 units=km 
New line.mt1794412 phases=3 bus1=152974790.1.2.3 bus2=5461859.1.2.3 linecode=CABA08_3_3_3 length=0.0041210000000000005 units=km 
New line.mt1794419 phases=3 bus1=152974790.1.2.3 bus2=126389491.1.2.3 linecode=CABA08_3_3_3 length=0.002999 units=km 
New line.mt1794503 phases=3 bus1=166015647.1.2.3 bus2=126389596.1.2.3 linecode=CAB103_3_3_3 length=0.026157 units=km 
New line.mt1794510 phases=3 bus1=166015647.1.2.3 bus2=126389603.1.2.3 linecode=CABA06_3_3_3 length=0.007067 units=km 
New line.mt1794517 phases=3 bus1=166015647.1.2.3 bus2=166015645.1.2.3 linecode=CABA08_3_3_3 length=0.047824 units=km 
New line.mt1796386 phases=3 bus1=157907710.1.2.3 bus2=157907963.1.2.3 linecode=CABA08_3_3_3 length=0.01081 units=km 
New line.mt1959850 phases=3 bus1=149563256.1.2.3 bus2=1604215B.1.2.3 linecode=CABA08_3_3_3 length=0.0072759999999999995 units=km 
New line.mt1959857 phases=3 bus1=149563256.1.2.3 bus2=160231820.1.2.3 linecode=CABA08_3_3_3 length=0.037179000000000004 units=km 
New line.mt1959864 phases=3 bus1=158928380.1.2.3 bus2=158928381.1.2.3 linecode=CAB902_4_3_3 length=0.012076 units=km 
New line.mt1959871 phases=3 bus1=126389652.1.2.3 bus2=160231821.1.2.3 linecode=CABA08_3_3_3 length=0.01859 units=km 
New line.mt1959878 phases=3 bus1=160231820.1.2.3 bus2=126389652.1.2.3 linecode=CABA08_3_3_3 length=0.039384 units=km 
New line.mt3368873 phases=3 bus1=171314696.1.2.3 bus2=1582809B.1.2.3 linecode=CABA08_3_3_3 length=0.006705 units=km 
New line.mt3368880 phases=3 bus1=171314696.1.2.3 bus2=1582816B.1.2.3 linecode=CABA08_3_3_3 length=0.0064 units=km 
New line.mt3368887 phases=3 bus1=171314696.1.2.3 bus2=1587338B.1.2.3 linecode=CABA08_3_3_3 length=0.028827000000000002 units=km 
New line.mt3382579 phases=3 bus1=4570227B.1.2.3 bus2=4570234B.1.2.3 linecode=CAB611_5_3_3 length=0.029 units=km 
New line.mt3382586 phases=3 bus1=4570234B.1.2.3 bus2=4570241B.1.2.3 linecode=CAB611_5_3_3 length=0.03799 units=km 
New line.mt3382593 phases=3 bus1=4570241B.1.2.3 bus2=150349472.1.2.3 linecode=CAB611_5_3_3 length=0.042022 units=km 
New line.mt3382607 phases=3 bus1=4570262B.1.2.3 bus2=150349465.1.2.3 linecode=CAB611_3_3_3 length=0.024027 units=km 
New line.mt3382614 phases=3 bus1=4570276B.1.2.3 bus2=4570262B.1.2.3 linecode=CAB611_3_3_3 length=0.053567000000000004 units=km 
New line.mt3382635 phases=3 bus1=160555618.1.2.3 bus2=4570297B.1.2.3 linecode=CAB607_3_3_3 length=0.008596999999999999 units=km 
New line.mt3382642 phases=3 bus1=4570297B.1.2.3 bus2=160555619.1.2.3 linecode=CAB607_3_3_3 length=0.032995 units=km 
New line.mt3382670 phases=3 bus1=160555619.1.2.3 bus2=149733970.1.2.3 linecode=CAB607_3_3_3 length=0.010624 units=km 
New line.mt3409732 phases=3 bus1=4608664B.1.2.3 bus2=4608671B.1.2.3 linecode=CAB611_3_3_3 length=0.037313 units=km 
New line.mt3409739 phases=3 bus1=4608671B.1.2.3 bus2=4570276B.1.2.3 linecode=CAB611_3_3_3 length=0.036664999999999996 units=km 
New line.mt3920487 phases=3 bus1=150349471.1.2.3 bus2=5076572B.1.2.3 linecode=CAB611_5_3_3 length=0.023073 units=km 
New line.mt3920494 phases=3 bus1=5076572B.1.2.3 bus2=4570227B.1.2.3 linecode=CAB611_5_3_3 length=0.030395 units=km 
New line.mt3922755 phases=3 bus1=4608664B.1.2.3 bus2=150349466.1.2.3 linecode=CAB611_3_3_3 length=0.008058 units=km 
New line.mt6935515 phases=3 bus1=126389820.1.2.3 bus2=1606035B.1.2.3 linecode=CABA06_3_3_3 length=0.028001 units=km 
New line.mt6935529 phases=3 bus1=1606035B.1.2.3 bus2=1606021B.1.2.3 linecode=CABA06_3_3_3 length=0.028827000000000002 units=km 
New line.mt6935536 phases=3 bus1=1606021B.1.2.3 bus2=1606028B.1.2.3 linecode=CABA06_3_3_3 length=0.006078999999999999 units=km 
New line.mt6935704 phases=3 bus1=1606028B.1.2.3 bus2=126389827.1.2.3 linecode=CABA06_3_3_3 length=0.027186 units=km 
New line.mt7571395 phases=3 bus1=129828619.1.2.3 bus2=129828626.1.2.3 linecode=CABA06_3_3_3 length=0.029137 units=km 
New line.mt7571955 phases=3 bus1=156288630.1.2.3 bus2=156288631.1.2.3 linecode=CAB611_3_3_3 length=0.00447 units=km 
New line.mt7571962 phases=3 bus1=156288631.1.2.3 bus2=156288632.1.2.3 linecode=CAB611_3_3_3 length=0.024582 units=km 
New line.mt7571976 phases=3 bus1=156288632.1.2.3 bus2=156288633.1.2.3 linecode=CAB611_3_3_3 length=0.0041210000000000005 units=km 
New line.mt7572011 phases=3 bus1=156288633.1.2.3 bus2=126389470.1.2.3 linecode=CABA08_3_3_3 length=0.008058 units=km 
New line.mt12150608 phases=3 bus1=150349467.1.2.3 bus2=150349468.1.2.3 linecode=CABA08_3_3_3 length=0.0005 units=km 
New line.mt12150609 phases=3 bus1=150349466.1.2.3 bus2=150349467.1.2.3 linecode=CAB611_3_3_3 length=0.005997 units=km 
New line.mt12150613 phases=3 bus1=150349463.1.2.3 bus2=150349464.1.2.3 linecode=CABA08_3_3_3 length=0.0005 units=km 
New line.mt12150616 phases=3 bus1=150349464.1.2.3 bus2=150349465.1.2.3 linecode=CAB611_3_3_3 length=0.003161 units=km 
New line.mt12150624 phases=3 bus1=150349473.1.2.3 bus2=150349474.1.2.3 linecode=CABA08_3_3_3 length=0.0005 units=km 
New line.mt12150625 phases=3 bus1=150349472.1.2.3 bus2=150349473.1.2.3 linecode=CAB607_3_3_3 length=0.003998 units=km 
New line.mt12150626 phases=3 bus1=150349469.1.2.3 bus2=150349470.1.2.3 linecode=CABA08_3_3_3 length=0.0005 units=km 
New line.mt12150627 phases=3 bus1=150349470.1.2.3 bus2=150349471.1.2.3 linecode=CAB607_3_3_3 length=0.0041210000000000005 units=km 
New line.mt12155478 phases=3 bus1=149734109.1.2.3 bus2=149734108.1.2.3 linecode=CABA08_3_3_3 length=0.016146 units=km 
New line.mt12155582 phases=3 bus1=149734107.1.2.3 bus2=149734108.1.2.3 linecode=CABA08_3_3_3 length=0.017193999999999997 units=km 
New line.mt12259127 phases=3 bus1=1592224B.1.2.3 bus2=171314704.1.2.3 linecode=CABA08_3_3_3 length=0.004997 units=km 
New line.mt12259128 phases=3 bus1=171314704.1.2.3 bus2=1592245B.1.2.3 linecode=CABA08_3_3_3 length=0.028001 units=km 
New line.mt12259131 phases=3 bus1=171314704.1.2.3 bus2=1592238B.1.2.3 linecode=CABA06_3_3_3 length=0.018347000000000002 units=km 
New line.mt12259137 phases=3 bus1=171314704.1.2.3 bus2=153371665.1.2.3 linecode=CABA08_3_3_3 length=0.0064 units=km 
New line.mt12259140 phases=3 bus1=162019901.1.2.3 bus2=162019902.1.2.3 linecode=CAB905_4_3_3 length=0.021987 units=km 
New line.mt12355041 phases=3 bus1=1745601B.1.2.3 bus2=1745594B.1.2.3 linecode=CABA08_3_3_3 length=0.029512 units=km 
New line.mt12355042 phases=3 bus1=1745594B.1.2.3 bus2=156758859.1.2.3 linecode=CABA08_3_3_3 length=0.017878 units=km 
New line.mt12355043 phases=3 bus1=156758859.1.2.3 bus2=164351430.1.2.3 linecode=CABA08_3_3_3 length=0.037567 units=km 
New line.mt12355044 phases=3 bus1=158569174.1.2.3 bus2=1609241B.1.2.3 linecode=CABA06_3_3_3 length=0.012992 units=km 
New line.mt12355045 phases=3 bus1=1609241B.1.2.3 bus2=156758844.1.2.3 linecode=CABA06_3_3_3 length=0.023692 units=km 
New line.mt12355046 phases=3 bus1=160863314.1.2.3 bus2=160863315.1.2.3 linecode=CAB401_3_3_3 length=0.00447 units=km 
New line.mt12355047 phases=3 bus1=160863315.1.2.3 bus2=160863316.1.2.3 linecode=CAB401_3_3_3 length=0.016114999999999997 units=km 
New line.mt12370929 phases=3 bus1=8975707B.1.2.3 bus2=157907966.1.2.3 linecode=CABA08_3_3_3 length=0.013031000000000001 units=km 
New line.mt12389987 phases=3 bus1=157907964.1.2.3 bus2=157907965.1.2.3 linecode=CABA08_3_3_3 length=0.015611 units=km 
New line.mt12389988 phases=3 bus1=157907965.1.2.3 bus2=126389190.1.2.3 linecode=CABA08_3_3_3 length=0.015255000000000001 units=km 
New line.mt12389990 phases=3 bus1=157907965.1.2.3 bus2=8975707B.1.2.3 linecode=CABA08_3_3_3 length=0.016989999999999998 units=km 
New line.mt12453816 phases=3 bus1=160555616.1.2.3 bus2=160555617.1.2.3 linecode=CABA08_3_3_3 length=0.003161 units=km 
New line.mt12453819 phases=3 bus1=160555617.1.2.3 bus2=160555618.1.2.3 linecode=CAB607_3_3_3 length=0.008242000000000001 units=km 
New line.mt12463464 phases=3 bus1=160863316.1.2.3 bus2=160863317.1.2.3 linecode=CAB401_3_3_3 length=0.00447 units=km 
New line.mt12543004 phases=3 bus1=164351433.1.2.3 bus2=164351434.1.2.3 linecode=CAB402_3_3_3 length=0.005382 units=km 
New line.mt12543005 phases=3 bus1=164351434.1.2.3 bus2=164351435.1.2.3 linecode=CAB402_3_3_3 length=0.009894 units=km 
New line.mt12543006 phases=3 bus1=164351435.1.2.3 bus2=164351436.1.2.3 linecode=CAB402_3_3_3 length=0.0064 units=km 
New line.mt12586939 phases=3 bus1=166015752.1.2.3 bus2=166015753.1.2.3 linecode=CABA08_3_3_3 length=0.010289999999999999 units=km 
New line.mt12586940 phases=3 bus1=166015753.1.2.3 bus2=9195529B.1.2.3 linecode=CAB609_3_3_3 length=0.003161 units=km 
New line.mt12586941 phases=3 bus1=9195529B.1.2.3 bus2=166015754.1.2.3 linecode=CAB609_3_3_3 length=0.010764 units=km 
New line.mtM163853 phases=3 bus1=126389764.1.2.3 bus2=126389771.1.2.3 linecode=CABA06_3_3_3 length=0.0005 units=km 
