Exemplos/ULAS628/ssdBT_ULAS628.dss
New line.bt1793978 phases=4 bus1=2072886.1.2.3.4 bus2=2072879.1.2.3.4 length=0.029393 units=km linecode=BT803_BT803_4_3_4_4
New line.bt1793985 phases=4 bus1=2072893.1.2.3.4 bus2=2072872.1.2.3.4 length=0.032183 units=km linecode=BT803_BT803_4_3_4_4
New line.bt1793992 phases=4 bus1=2072900.1.2.3.4 bus2=2072886.1.2.3.4 length=0.025791 units=km linecode=BT803_BT803_4_3_4_4
New line.bt1793999 phases=4 bus1=2072907.1.2.3.4 bus2=2072893.1.2.3.4 length=0.023587 units=km linecode=BT803_BT803_4_3_4_4
New line.bt1794006 phases=4 bus1=2072914.1.2.3.4 bus2=2072900.1.2.3.4 length=0.02219 units=km linecode=BT803_BT803_4_3_4_4
New line.bt1794013 phases=4 bus1=2072921.1.2.3.4 bus2=2072907.1.2.3.4 length=0.005828000000000001 units=km linecode=BT803_BT803_4_3_4_4
New line.bt1794020 phases=4 bus1=2072921.1.2.3.4 bus2=2072914.1.2.3.4 length=0.007207 units=km linecode=BT803_BT803_4_3_4_4
New line.bt1794027 phases=4 bus1=2072921.1.2.3.4 bus2=2072935.1.2.3.4 length=0.028001 units=km linecode=BT803_BT803_4_3_4_4
New line.bt1794034 phases=4 bus1=2072928.1.2.3.4 bus2=2072921.1.2.3.4 length=0.032995 units=km linecode=BT803_BT803_4_3_4_4
New line.bt1794041 phases=4 bus1=2072935.1.2.3.4 bus2=2072963.1.2.3.4 length=0.031603 units=km linecode=BT803_BT803_4_3_4_4
New line.bt1794048 phases=4 bus1=2072949.1.2.3.4 bus2=2072928.1.2.3.4 length=0.029393 units=km linecode=BT805_BT805_4_3_4_4
New line.bt1794055 phases=4 bus1=2072865.1.2.3.4 bus2=2072949.1.2.3.4 length=0.0005 units=km linecode=BT514_BT514_7_3_1_4
New line.bt1794062 phases=4 bus1=2072949.1.2.3.4 bus2=2072970.1.2.3.4 length=0.030787 units=km linecode=BT805_BT805_4_3_4_4
New line.bt1794069 phases=4 bus1=2072956.1.2.3.4 bus2=2072942.1.2.3.4 length=0.029393 units=km linecode=BT810_BT810_4_3_4_4
New line.bt1794076 phases=4 bus1=2072970.1.2.3.4 bus2=2072984.1.2.3.4 length=0.027186 units=km linecode=BT803_BT803_4_3_4_4
New line.bt1794083 phases=4 bus1=2072977.1.2.3.4 bus2=2072956.1.2.3.4 length=0.025791 units=km linecode=BT810_BT810_4_3_4_4
New line.bt1794090 phases=4 bus1=2072984.1.2.3.4 bus2=2072991.1.2.3.4 length=0.005828000000000001 units=km linecode=BT803_BT803_4_3_4_4
New line.bt1794097 phases=4 bus1=2072991.1.2.3.4 bus2=2072977.1.2.3.4 length=0.005828000000000001 units=km linecode=BT810_BT810_4_3_4_4
New line.bt1794104 phases=4 bus1=2072991.1.2.3.4 bus2=2072998.1.2.3.4 length=0.026385000000000002 units=km linecode=BT803_BT803_4_3_4_4
New line.bt1794111 phases=4 bus1=2072991.1.2.3.4 bus2=2073005.1.2.3.4 length=0.029393 units=km linecode=BT810_BT810_4_3_4_4
New line.bt1794118 phases=4 bus1=2072998.1.2.3.4 bus2=2073026.1.2.3.4 length=0.028582999999999997 units=km linecode=BT803_BT803_4_3_4_4
New line.bt1794125 phases=4 bus1=2073005.1.2.3.4 bus2=2073012.1.2.3.4 length=0.028001 units=km linecode=BT810_BT810_4_3_4_4
New line.bt1794132 phases=4 bus1=2073026.1.2.3.4 bus2=2073019.1.2.3.4 length=0.030787 units=km linecode=BT803_BT803_4_3_4_4
New line.bt1799354 phases=4 bus1=2078626.1.2.3.4 bus2=153370151.1.2.3.4 length=0.0064 units=km linecode=BT803_BT803_4_3_4_4
New line.bt1799361 phases=4 bus1=2078619.1.2.3.4 bus2=2078626.1.2.3.4 length=0.004997 units=km linecode=BT803_BT803_4_3_4_4
New line.bt1799368 phases=4 bus1=2078626.1.2.3.4 bus2=2078633.1.2.3.4 length=0.018347000000000002 units=km linecode=BT803_BT803_4_3_4_4
New line.bt1799375 phases=4 bus1=2078626.1.2.3.4 bus2=2078640.1.2.3.4 length=0.028001 units=km linecode=BT803_BT803_4_3_4_4
New line.bt1799382 phases=4 bus1=2078640.1.2.3.4 bus2=2078661.1.2.3.4 length=0.01859 units=km linecode=BT803_BT803_4_3_4_4
New line.bt1799389 phases=4 bus1=2078654.1.2.3.4 bus2=2078647.1.2.3.4 length=0.034110999999999995 units=km linecode=BT803_BT803_4_3_4_4
New line.bt1799396 phases=4 bus1=2078661.1.2.3.4 bus2=2078668.1.2.3.4 length=0.0072759999999999995 units=km linecode=BT803_BT803_4_3_4_4
New line.bt1799403 phases=4 bus1=2078668.1.2.3.4 bus2=2078654.1.2.3.4 length=0.033356000000000004 units=km linecode=BT803_BT803_4_3_4_4
New line.bt1799410 phases=4 bus1=2078668.1.2.3.4 bus2=2078675.1.2.3.4 length=0.029815 units=km linecode=BT803_BT803_4_3_4_4
New line.bt1801174 phases=4 bus1=2080425.1.2.3.4 bus2=2080439.1.2.3.4 length=0.025303 units=km linecode=BT108_BT107_7_3_1_4
New line.bt1801181 phases=4 bus1=2080425.1.2.3.4 bus2=2080418.1.2.3.4 length=0.029596 units=km linecode=BT108_BT107_7_3_1_4
New line.bt1801188 phases=4 bus1=2080432.1.2.3.4 bus2=2080425.1.2.3.4 length=0.008058 units=km linecode=BT108_BT107_7_3_1_4
New line.bt1801195 phases=4 bus1=2080446.1.2.3.4 bus2=2080432.1.2.3.4 length=0.030395 units=km linecode=BT108_BT107_7_3_1_4
New line.bt1801202 phases=4 bus1=2080453.1.2.3.4 bus2=2080446.1.2.3.4 length=0.030574999999999998 units=km linecode=BT107_BT107_7_3_1_4
New line.bt1801209 phases=4 bus1=2080460.1.2.3.4 bus2=2080453.1.2.3.4 length=0.031556 units=km linecode=BT107_BT107_7_3_1_4
New line.bt1801216 phases=4 bus1=2080411.1.2.3.4 bus2=2080460.1.2.3.4 length=0.0005 units=km linecode=BT309_BT309_7_3_1_4
New line.bt1801223 phases=4 bus1=2080460.1.2.3.4 bus2=2080467.1.2.3.4 length=0.030395 units=km linecode=BT107_BT107_7_3_1_4
New line.bt1801230 phases=4 bus1=2080467.1.2.3.4 bus2=2080474.1.2.3.4 length=0.03352 units=km linecode=BT107_BT107_7_3_1_4
New line.bt1801237 phases=4 bus1=2080474.1.2.3.4 bus2=2080481.1.2.3.4 length=0.034692 units=km linecode=BT108_BT107_7_3_1_4
New line.bt1801244 phases=4 bus1=2080481.1.2.3.4 bus2=2080495.1.2.3.4 length=0.0078060000000000004 units=km linecode=BT108_BT107_7_3_1_4
New line.bt1801251 phases=4 bus1=2080495.1.2.3.4 bus2=2080488.1.2.3.4 length=0.024069 units=km linecode=BT108_BT107_7_3_1_4
New line.bt1801258 phases=4 bus1=2080495.1.2.3.4 bus2=2080502.1.2.3.4 length=0.026984 units=km linecode=BT108_BT107_7_3_1_4
New line.bt1801727 phases=4 bus1=3118140.1.2.3.4 bus2=3118147.1.2.3.4 length=0.030997 units=km linecode=BT803_BT803_4_3_4_4
New line.bt1801748 phases=4 bus1=2082791.1.2.3.4 bus2=3118140.1.2.3.4 length=0.022789999999999998 units=km linecode=BT803_BT803_4_3_4_4
New line.bt1801755 phases=4 bus1=2082791.1.2.3.4 bus2=2082735.1.2.3.4 length=0.026385000000000002 units=km linecode=BT106_BT106_7_3_1_4
New line.bt1803365 phases=4 bus1=2082707.1.2.3.4 bus2=2082700.1.2.3.4 length=0.02219 units=km linecode=BT108_BT108_7_3_1_4
New line.bt1803372 phases=4 bus1=2082707.1.2.3.4 bus2=2082714.1.2.3.4 length=0.007067 units=km linecode=BT107_BT106_7_3_1_4
New line.bt1803379 phases=4 bus1=2082714.1.2.3.4 bus2=2997012.1.2.3.4 length=0.028214 units=km linecode=BT106_BT106_7_3_1_4
New line.bt1803386 phases=4 bus1=2082721.1.2.3.4 bus2=2082707.1.2.3.4 length=0.038808999999999996 units=km linecode=BT107_BT108_7_3_1_4
New line.bt1803393 phases=4 bus1=2082735.1.2.3.4 bus2=2082728.1.2.3.4 length=0.026909 units=km linecode=BT106_BT106_7_3_1_4
New line.bt1803400 phases=4 bus1=2082742.1.2.3.4 bus2=2082721.1.2.3.4 length=0.037179000000000004 units=km linecode=BT107_BT108_7_3_1_4
New line.bt1803407 phases=4 bus1=2082749.1.2.3.4 bus2=2082756.1.2.3.4 length=0.032995 units=km linecode=BT108_BT108_7_3_1_4
New line.bt1803414 phases=4 bus1=2082763.1.2.3.4 bus2=2082749.1.2.3.4 length=0.033993999999999996 units=km linecode=BT108_BT108_7_3_1_4
New line.bt1803421 phases=4 bus1=2082770.1.2.3.4 bus2=2082742.1.2.3.4 length=0.006704 units=km linecode=BT107_BT106_7_3_1_4
New line.bt1803428 phases=4 bus1=2082770.1.2.3.4 bus2=2082763.1.2.3.4 length=0.02219 units=km linecode=BT108_BT108_7_3_1_4
New line.bt1803435 phases=4 bus1=2082777.1.2.3.4 bus2=2082770.1.2.3.4 length=0.024315999999999997 units=km linecode=BT108_BT108_7_3_1_4
New line.bt1803442 phases=4 bus1=2082693.1.2.3.4 bus2=2082777.1.2.3.4 length=0.0005 units=km linecode=BT508_BT508_7_3_1_4
New line.bt1803449 phases=4 bus1=2082777.1.2.3.4 bus2=2082784.1.2.3.4 length=0.0245 units=km linecode=BT108_BT108_7_3_1_4
New line.bt1803456 phases=3 bus1=2082777.3.1.4 bus2=2082798.3.1.4 length=0.020384 units=km linecode=BT519_BT519_5_2_1_3
New line.bt1803463 phases=4 bus1=2082784.1.2.3.4 bus2=2082791.1.2.3.4 length=0.0245 units=km linecode=BT108_BT108_7_3_1_4
New line.bt1807012 phases=4 bus1=2086438.1.2.3.4 bus2=2086431.1.2.3.4 length=0.030065 units=km linecode=BT108_BT108_7_3_1_4
New line.bt1807019 phases=4 bus1=2086452.1.2.3.4 bus2=2086438.1.2.3.4 length=0.029948 units=km linecode=BT108_BT108_7_3_1_4
New line.bt1807026 phases=4 bus1=2086459.1.2.3.4 bus2=2086445.1.2.3.4 length=0.025791 units=km linecode=BT108_BT108_7_3_1_4
New line.bt1807033 phases=4 bus1=2086466.1.2.3.4 bus2=2086452.1.2.3.4 length=0.031366 units=km linecode=BT108_BT108_7_3_1_4
New line.bt1807040 phases=4 bus1=2086466.1.2.3.4 bus2=2086459.1.2.3.4 length=0.006078999999999999 units=km linecode=BT108_BT108_7_3_1_4
New line.bt1807047 phases=4 bus1=2086473.1.2.3.4 bus2=2086466.1.2.3.4 length=0.029393 units=km linecode=BT108_BT108_7_3_1_4
New line.bt1807054 phases=4 bus1=2086424.1.2.3.4 bus2=2086473.1.2.3.4 length=0.0005 units=km linecode=BT513_BT513_7_3_1_4
New line.bt1807061 phases=4 bus1=2086473.1.2.3.4 bus2=2086480.1.2.3.4 length=0.030787 units=km linecode=BT108_BT108_7_3_1_4
New line.bt1807068 phases=4 bus1=2086480.1.2.3.4 bus2=2086487.1.2.3.4 length=0.029393 units=km linecode=BT108_BT108_7_3_1_4
New line.bt1807075 phases=4 bus1=2086487.1.2.3.4 bus2=2086494.1.2.3.4 length=0.031603 units=km linecode=BT108_BT108_7_3_1_4
New line.bt1807082 phases=4 bus1=2086494.1.2.3.4 bus2=2086501.1.2.3.4 length=0.029393 units=km linecode=BT108_BT108_7_3_1_4
New line.bt1809007 phases=4 bus1=2088440.1.2.3.4 bus2=2088447.1.2.3.4 length=0.0005 units=km linecode=BT312_BT312_7_3_1_4
New line.bt1811709 phases=4 bus1=2091198.1.2.3.4 bus2=2091191.1.2.3.4 length=0.027186 units=km linecode=BT805_BT805_4_3_4_4
New line.bt1811716 phases=4 bus1=2091205.1.2.3.4 bus2=2091198.1.2.3.4 length=0.029393 units=km linecode=BT805_BT805_4_3_4_4
New line.bt1811723 phases=4 bus1=2091212.1.2.3.4 bus2=2091205.1.2.3.4 length=0.028001 units=km linecode=BT805_BT805_4_3_4_4
New line.bt1811730 phases=4 bus1=2091184.1.2.3.4 bus2=2091212.1.2.3.4 length=0.0005 units=km linecode=BT514_BT514_7_3_1_4
New line.bt1811737 phases=4 bus1=2091212.1.2.3.4 bus2=2091219.1.2.3.4 length=0.02219 units=km linecode=BT805_BT805_4_3_4_4
New line.bt1811744 phases=4 bus1=2091219.1.2.3.4 bus2=2091226.1.2.3.4 length=0.034387999999999995 units=km linecode=BT805_BT805_4_3_4_4
New line.bt1811751 phases=4 bus1=2091226.1.2.3.4 bus2=2091233.1.2.3.4 length=0.02219 units=km linecode=BT805_BT805_4_3_4_4
New line.bt1812318 phases=4 bus1=2091800.1.2.3.4 bus2=3155590.1.2.3.4 length=0.025045 units=km linecode=BT803_BT803_4_3_4_4
New line.bt1814705 phases=4 bus1=2094229.1.2.3.4 bus2=2094222.1.2.3.4 length=0.004997 units=km linecode=BT803_BT803_4_3_4_4
New line.bt1814712 phases=4 bus1=2094229.1.2.3.4 bus2=2094215.1.2.3.4 length=0.004997 units=km linecode=BT805_BT803_4_3_4_4
New line.bt1814719 phases=4 bus1=2094229.1.2.3.4 bus2=2094243.1.2.3.4 length=0.023587 units=km linecode=BT803_BT803_4_3_4_4
New line.bt1814726 phases=4 bus1=2094236.1.2.3.4 bus2=2094229.1.2.3.4 length=0.023008 units=km linecode=BT805_BT805_4_3_4_4
New line.bt1814733 phases=4 bus1=2094243.1.2.3.4 bus2=2094257.1.2.3.4 length=0.029393 units=km linecode=BT803_BT803_4_3_4_4
New line.bt1814740 phases=4 bus1=2094250.1.2.3.4 bus2=2094236.1.2.3.4 length=0.027186 units=km linecode=BT805_BT805_4_3_4_4
New line.bt1814747 phases=4 bus1=2094208.1.2.3.4 bus2=2094250.1.2.3.4 length=0.0005 units=km linecode=BT311_BT311_7_3_1_4
New line.bt1814754 phases=4 bus1=2094250.1.2.3.4 bus2=2094264.1.2.3.4 length=0.028582999999999997 units=km linecode=BT805_BT805_4_3_4_4
New line.bt1814761 phases=4 bus1=2094264.1.2.3.4 bus2=2094271.1.2.3.4 length=0.025791 units=km linecode=BT810_BT810_4_3_4_4
New line.bt1814768 phases=4 bus1=2094285.1.2.3.4 bus2=96381737.1.2.3.4 length=0.027186 units=km linecode=BT803_BT803_4_3_4_4
New line.bt1814775 phases=4 bus1=2094285.1.2.3.4 bus2=2094299.1.2.3.4 length=0.027186 units=km linecode=BT803_BT803_4_3_4_4
New line.bt1814782 phases=4 bus1=2094292.1.2.3.4 bus2=2094278.1.2.3.4 length=0.034387999999999995 units=km linecode=BT803_BT803_4_3_4_4
New line.bt1814789 phases=4 bus1=2094292.1.2.3.4 bus2=2094306.1.2.3.4 length=0.028827000000000002 units=km linecode=BT803_BT803_4_3_4_4
New line.bt1814796 phases=4 bus1=2094299.1.2.3.4 bus2=2094292.1.2.3.4 length=0.006078999999999999 units=km linecode=BT803_BT803_4_3_4_4
New line.bt1815552 phases=4 bus1=2095090.1.2.3.4 bus2=2095076.1.2.3.4 length=0.026667000000000003 units=km linecode=BT803_BT803_4_3_4_4
New line.bt1815559 phases=4 bus1=2095097.1.2.3.4 bus2=2095083.1.2.3.4 length=0.025045 units=km linecode=BT810_BT810_4_3_4_4
New line.bt1815566 phases=4 bus1=2095104.1.2.3.4 bus2=2095090.1.2.3.4 length=0.025693999999999998 units=km linecode=BT803_BT803_4_3_4_4
New line.bt1815573 phases=4 bus1=2095104.1.2.3.4 bus2=2095097.1.2.3.4 length=0.007067 units=km linecode=BT810_BT810_4_3_4_4
New line.bt1815580 phases=4 bus1=2095111.1.2.3.4 bus2=2095104.1.2.3.4 length=0.023523 units=km linecode=BT803_BT803_4_3_4_4
New line.bt1815587 phases=4 bus1=2095069.1.2.3.4 bus2=2095111.1.2.3.4 length=0.0005 units=km linecode=BT309_BT309_7_3_1_4
New line.bt1815594 phases=4 bus1=2095111.1.2.3.4 bus2=2098989.1.2.3.4 length=0.034155 units=km linecode=BT803_BT803_4_3_4_4
New line.bt1817477 phases=4 bus1=2097001.1.2.3.4 bus2=2096994.1.2.3.4 length=0.032995 units=km linecode=BT803_BT803_4_3_4_4
New line.bt1817484 phases=4 bus1=2097008.1.2.3.4 bus2=2097001.1.2.3.4 length=0.034387999999999995 units=km linecode=BT803_BT803_4_3_4_4
New line.bt1817491 phases=4 bus1=2097008.1.2.3.4 bus2=2097022.1.2.3.4 length=0.032183 units=km linecode=BT803_BT803_4_3_4_4
New line.bt1817498 phases=4 bus1=2097029.1.2.3.4 bus2=2097015.1.2.3.4 length=0.027186 units=km linecode=BT803_BT803_4_3_4_4
New line.bt1817505 phases=4 bus1=2097022.1.2.3.4 bus2=2097036.1.2.3.4 length=0.032183 units=km linecode=BT803_BT803_4_3_4_4
New line.bt1817512 phases=4 bus1=2097036.1.2.3.4 bus2=2097029.1.2.3.4 length=0.007067 units=km linecode=BT803_BT803_4_3_4_4
New line.bt1817519 phases=4 bus1=155884788.1.2.3.4 bus2=155884804.1.2.3.4 length=0.028582999999999997 units=km linecode=BT108_BT108_7_3_1_4
New line.bt1817526 phases=4 bus1=2097050.1.2.3.4 bus2=155884788.1.2.3.4 length=0.027186 units=km linecode=BT108_BT108_7_3_1_4
New line.bt1817533 phases=4 bus1=2096987.1.2.3.4 bus2=2097050.1.2.3.4 length=0.0005 units=km linecode=BT307_BT307_7_3_1_4
New line.bt1817540 phases=4 bus1=2097050.1.2.3.4 bus2=2097057.1.2.3.4 length=0.026611 units=km linecode=BT108_BT108_7_3_1_4
New line.bt1817547 phases=4 bus1=2097057.1.2.3.4 bus2=2097064.1.2.3.4 length=0.028582999999999997 units=km linecode=BT108_BT108_7_3_1_4
New line.bt1817554 phases=4 bus1=2097064.1.2.3.4 bus2=2097071.1.2.3.4 length=0.028001 units=km linecode=BT108_BT108_7_3_1_4
New line.bt1817561 phases=4 bus1=2097071.1.2.3.4 bus2=2097078.1.2.3.4 length=0.025791 units=km linecode=BT108_BT108_7_3_1_4
New line.bt1817568 phases=4 bus1=2097078.1.2.3.4 bus2=2097085.1.2.3.4 length=0.031745 units=km linecode=BT108_BT108_7_3_1_4
New line.bt1817575 phases=4 bus1=2097078.1.2.3.4 bus2=3212255.1.2.3.4 length=0.007067 units=km linecode=BT108_BT108_7_3_1_4
New line.bt1819325 phases=4 bus1=2098793.1.2.3.4 bus2=2098786.1.2.3.4 length=0.021827000000000003 units=km linecode=BT810_BT810_4_3_4_4
New line.bt1819332 phases=4 bus1=2098800.1.2.3.4 bus2=2098793.1.2.3.4 length=0.031029 units=km linecode=BT810_BT810_4_3_4_4
New line.bt1819339 phases=4 bus1=2098807.1.2.3.4 bus2=2098800.1.2.3.4 length=0.029815 units=km linecode=BT810_BT810_4_3_4_4
New line.bt1819346 phases=4 bus1=2098814.1.2.3.4 bus2=2098807.1.2.3.4 length=0.028617999999999998 units=km linecode=BT810_BT810_4_3_4_4
New line.bt1819353 phases=4 bus1=2098821.1.2.3.4 bus2=2098814.1.2.3.4 length=0.031029 units=km linecode=BT810_BT810_4_3_4_4
New line.bt1819367 phases=4 bus1=2098828.1.2.3.4 bus2=2098821.1.2.3.4 length=0.026233 units=km linecode=BT810_BT810_4_3_4_4
New line.bt1819374 phases=4 bus1=2098835.1.2.3.4 bus2=2098828.1.2.3.4 length=0.025984 units=km linecode=BT810_BT810_4_3_4_4
New line.bt1819381 phases=4 bus1=2098842.1.2.3.4 bus2=2098835.1.2.3.4 length=0.026404 units=km linecode=BT810_BT810_4_3_4_4
New line.bt1819388 phases=4 bus1=129828997.1.2.3.4 bus2=2098842.1.2.3.4 length=0.004997 units=km linecode=BT518_BT518_5_3_1_4
New line.bt1819395 phases=4 bus1=2098779.1.2.3.4 bus2=2098856.1.2.3.4 length=0.0005 units=km linecode=BT521_BT521_7_3_1_4
New line.bt1819402 phases=4 bus1=2098856.1.2.3.4 bus2=2098849.1.2.3.4 length=0.024985 units=km linecode=BT810_BT810_4_3_4_4
New line.bt1819409 phases=4 bus1=2098856.1.2.3.4 bus2=2098877.1.2.3.4 length=0.023331 units=km linecode=BT810_BT810_4_3_4_4
New line.bt1819416 phases=4 bus1=2098863.1.2.3.4 bus2=2098870.1.2.3.4 length=0.016543 units=km linecode=BT810_BT810_4_3_4_4
New line.bt1819423 phases=4 bus1=2098877.1.2.3.4 bus2=2098863.1.2.3.4 length=0.013446 units=km linecode=BT810_BT810_4_3_4_4
New line.bt1819521 phases=4 bus1=2098989.1.2.3.4 bus2=129833736.1.2.3.4 length=0.028617999999999998 units=km linecode=BT803_BT803_4_3_4_4
New line.bt1819528 phases=4 bus1=129833736.1.2.3.4 bus2=3043548.1.2.3.4 length=0.008058 units=km linecode=BT803_BT803_4_3_4_4
New line.bt1819549 phases=4 bus1=164349998.1.2.3.4 bus2=2099003.1.2.3.4 length=0.022658 units=km linecode=BT803_BT803_4_3_4_4
New line.bt1819563 phases=4 bus1=2099017.1.2.3.4 bus2=164349998.1.2.3.4 length=0.026233 units=km linecode=BT803_BT803_4_3_4_4
New line.bt1819570 phases=3 bus1=2099017.2.3.4 bus2=3223742.2.3.4 length=0.003161 units=km linecode=BT505_BT505_5_2_1_3
New line.bt1821754 phases=4 bus1=2101222.1.2.3.4 bus2=2101215.1.2.3.4 length=0.029137 units=km linecode=BT108_BT108_7_3_1_4
New line.bt1821761 phases=4 bus1=2101243.1.2.3.4 bus2=2101229.1.2.3.4 length=0.006320999999999999 units=km linecode=BT805_BT805_4_3_4_4
New line.bt1821768 phases=4 bus1=2101243.1.2.3.4 bus2=2101222.1.2.3.4 length=0.028844 units=km linecode=BT803_BT803_4_3_4_4
New line.bt1821775 phases=4 bus1=2101250.1.2.3.4 bus2=2101243.1.2.3.4 length=0.027056999999999998 units=km linecode=BT803_BT803_4_3_4_4
New line.bt1821782 phases=4 bus1=2101257.1.2.3.4 bus2=2101250.1.2.3.4 length=0.023985 units=km linecode=BT803_BT803_4_3_4_4
New line.bt1821789 phases=4 bus1=2101208.1.2.3.4 bus2=2101257.1.2.3.4 length=0.0005 units=km linecode=BT518_BT518_7_3_1_4
New line.bt1821796 phases=4 bus1=2101257.1.2.3.4 bus2=2101264.1.2.3.4 length=0.020013000000000003 units=km linecode=BT803_BT803_4_3_4_4
New line.bt1821803 phases=4 bus1=2101264.1.2.3.4 bus2=2101271.1.2.3.4 length=0.029981999999999998 units=km linecode=BT803_BT803_4_3_4_4
New line.bt1821810 phases=4 bus1=2101271.1.2.3.4 bus2=2101278.1.2.3.4 length=0.027983 units=km linecode=BT803_BT803_4_3_4_4
New line.bt1821817 phases=4 bus1=2101278.1.2.3.4 bus2=2305741.1.2.3.4 length=0.031126 units=km linecode=BT803_BT803_4_3_4_4
New line.bt1826066 phases=4 bus1=2105443.1.2.3.4 bus2=2105436.1.2.3.4 length=0.010192 units=km linecode=BT803_BT803_4_3_4_4
New line.bt1826073 phases=4 bus1=2105450.1.2.3.4 bus2=2105443.1.2.3.4 length=0.030395 units=km linecode=BT803_BT803_4_3_4_4
New line.bt1826080 phases=4 bus1=2105457.1.2.3.4 bus2=2105450.1.2.3.4 length=0.028617999999999998 units=km linecode=BT803_BT803_4_3_4_4
New line.bt1826087 phases=4 bus1=2105464.1.2.3.4 bus2=2105457.1.2.3.4 length=0.034864 units=km linecode=BT803_BT803_4_3_4_4
New line.bt1826094 phases=4 bus1=2105471.1.2.3.4 bus2=2105464.1.2.3.4 length=0.032183 units=km linecode=BT803_BT803_4_3_4_4
New line.bt1826101 phases=4 bus1=2105429.1.2.3.4 bus2=2105471.1.2.3.4 length=0.0005 units=km linecode=BT508_BT508_7_3_1_4
New line.bt1826108 phases=4 bus1=2105471.1.2.3.4 bus2=2105478.1.2.3.4 length=0.030997 units=km linecode=BT803_BT803_4_3_4_4
New line.bt1826115 phases=4 bus1=2105478.1.2.3.4 bus2=2105485.1.2.3.4 length=0.029713999999999997 units=km linecode=BT108_BT108_7_3_1_4
New line.bt1826122 phases=4 bus1=2105485.1.2.3.4 bus2=2105492.1.2.3.4 length=0.030444 units=km linecode=BT108_BT108_7_3_1_4
New line.bt1826129 phases=4 bus1=2105492.1.2.3.4 bus2=2105499.1.2.3.4 length=0.03799 units=km linecode=BT108_BT108_7_3_1_4
New line.bt1826136 phases=4 bus1=2105499.1.2.3.4 bus2=3230350.1.2.3.4 length=0.005828000000000001 units=km linecode=BT107_BT108_7_3_1_4
New line.bt1826143 phases=4 bus1=2105506.1.2.3.4 bus2=2105513.1.2.3.4 length=0.023245000000000002 units=km linecode=BT107_BT108_7_3_1_4
New line.bt1826150 phases=4 bus1=2105513.1.2.3.4 bus2=2105520.1.2.3.4 length=0.028617999999999998 units=km linecode=BT107_BT108_7_3_1_4
New line.bt1826157 phases=4 bus1=2105520.1.2.3.4 bus2=2105527.1.2.3.4 length=0.029948 units=km linecode=BT107_BT108_7_3_1_4
New line.bt1826164 phases=4 bus1=2105527.1.2.3.4 bus2=2105534.1.2.3.4 length=0.032183 units=km linecode=BT107_BT108_7_3_1_4
New line.bt1826171 phases=4 bus1=2105534.1.2.3.4 bus2=2105541.1.2.3.4 length=0.029948 units=km linecode=BT107_BT108_7_3_1_4
New line.bt1826178 phases=4 bus1=2105541.1.2.3.4 bus2=2105548.1.2.3.4 length=0.029948 units=km linecode=BT107_BT108_7_3_1_4
New line.bt1826185 phases=4 bus1=2105548.1.2.3.4 bus2=2105555.1.2.3.4 length=0.030657 units=km linecode=BT107_BT108_7_3_1_4
New line.bt1826192 phases=4 bus1=2105562.1.2.3.4 bus2=2105506.1.2.3.4 length=0.014308999999999999 units=km linecode=BT107_BT108_7_3_1_4
New line.bt1973241 phases=4 bus1=2258246.1.2.3.4 bus2=2099017.1.2.3.4 length=0.00905 units=km linecode=BT803_BT803_4_3_4_4
New line.bt1973248 phases=4 bus1=2258253.1.2.3.4 bus2=2258302.1.2.3.4 length=0.029050999999999997 units=km linecode=BT803_BT803_4_3_4_4
New line.bt1973255 phases=4 bus1=2258260.1.2.3.4 bus2=2258253.1.2.3.4 length=0.030395 units=km linecode=BT803_BT803_4_3_4_4
New line.bt1973262 phases=4 bus1=2258239.1.2.3.4 bus2=2258260.1.2.3.4 length=0.0005 units=km linecode=BT518_BT518_7_3_1_4
New line.bt1973269 phases=4 bus1=2258260.1.2.3.4 bus2=2258267.1.2.3.4 length=0.027278 units=km linecode=BT803_BT803_4_3_4_4
New line.bt1973276 phases=4 bus1=2258267.1.2.3.4 bus2=2258274.1.2.3.4 length=0.030395 units=km linecode=BT803_BT803_4_3_4_4
New line.bt1973283 phases=4 bus1=2258274.1.2.3.4 bus2=2258281.1.2.3.4 length=0.028161000000000002 units=km linecode=BT803_BT803_4_3_4_4
New line.bt1973290 phases=4 bus1=2258281.1.2.3.4 bus2=2258288.1.2.3.4 length=0.029512 units=km linecode=BT803_BT803_4_3_4_4
New line.bt1973297 phases=4 bus1=2258295.1.2.3.4 bus2=164348506.1.2.3.4 length=0.028161000000000002 units=km linecode=BT803_BT803_4_3_4_4
New line.bt1973304 phases=4 bus1=2258295.1.2.3.4 bus2=2258246.1.2.3.4 length=0.026816 units=km linecode=BT803_BT803_4_3_4_4
New line.bt1973311 phases=4 bus1=2258302.1.2.3.4 bus2=2258309.1.2.3.4 length=0.029512 units=km linecode=BT809_BT809_4_3_4_4
New line.bt2017355 phases=3 bus1=2305720.1.2.4 bus2=2305734.1.2.4 length=0.026385000000000002 units=km linecode=BT801_BT801_4_2_3_3
New line.bt2017362 phases=4 bus1=2305741.1.2.3.4 bus2=158527307.1.2.3.4 length=0.025693999999999998 units=km linecode=BT803_BT803_4_3_4_4
New line.bt2017369 phases=4 bus1=158527307.1.2.3.4 bus2=2305720.1.2.3.4 length=0.026233 units=km linecode=BT803_BT803_4_3_4_4
New line.bt2021394 phases=4 bus1=2309969.1.2.3.4 bus2=2309962.1.2.3.4 length=0.028001 units=km linecode=BT805_BT805_4_3_4_4
New line.bt2021401 phases=4 bus1=2309955.1.2.3.4 bus2=2309969.1.2.3.4 length=0.0005 units=km linecode=BT513_BT513_7_3_1_4
New line.bt2021408 phases=4 bus1=2309969.1.2.3.4 bus2=2309976.1.2.3.4 length=0.027186 units=km linecode=BT803_BT803_4_3_4_4
New line.bt2030067 phases=4 bus1=2319020.1.2.3.4 bus2=2319013.1.2.3.4 length=0.027186 units=km linecode=BT803_BT803_4_3_4_4
New line.bt2030074 phases=4 bus1=2319027.1.2.3.4 bus2=2078619.1.2.3.4 length=0.028582999999999997 units=km linecode=BT803_BT803_4_3_4_4
New line.bt2030081 phases=4 bus1=2319027.1.2.3.4 bus2=2319020.1.2.3.4 length=0.029981999999999998 units=km linecode=BT803_BT803_4_3_4_4
New line.bt2030088 phases=4 bus1=2318999.1.2.3.4 bus2=2319027.1.2.3.4 length=0.0005 units=km linecode=BT513_BT513_7_3_1_4
New line.bt3493893 phases=4 bus1=3033314.1.2.3.4 bus2=3033321.1.2.3.4 length=0.0005 units=km linecode=BT514_BT514_7_3_1_4
New line.bt3508460 phases=4 bus1=3043548.1.2.3.4 bus2=2091800.1.2.3.4 length=0.031745 units=km linecode=BT803_BT803_4_3_4_4
New line.bt3625227 phases=4 bus1=3134128.1.2.3.4 bus2=3134135.1.2.3.4 length=0.0005 units=km linecode=BT514_BT514_7_3_1_4
New line.bt3749694 phases=3 bus1=3223742.2.3.4 bus2=2099024.2.3.4 length=0.009429 units=km linecode=BT505_BT505_5_2_1_3
New line.bt3758857 phases=4 bus1=3230350.1.2.3.4 bus2=2105562.1.2.3.4 length=0.016543 units=km linecode=BT107_BT108_7_3_1_4
New line.bt5393336 phases=4 bus1=5559313.1.2.3.4 bus2=5559320.1.2.3.4 length=0.0005 units=km linecode=BT514_BT509_7_3_1_4
New line.bt8861376 phases=4 bus1=96380330.1.2.3.4 bus2=2094285.1.2.3.4 length=0.0005 units=km linecode=BT513_BT513_7_3_1_4
New line.bt9417043 phases=3 bus1=2095104.1.2.4 bus2=118532824.1.2.4 length=0.003604 units=km linecode=BT503_BT503_5_2_1_3
New line.bt9417050 phases=3 bus1=118532824.1.2.4 bus2=118532957.1.2.4 length=0.026385000000000002 units=km linecode=BT503_BT503_5_2_1_3
New line.bt9417057 phases=3 bus1=118532957.1.2.4 bus2=118533174.1.2.4 length=0.005828000000000001 units=km linecode=BT503_BT503_5_2_1_3
New line.bt9417099 phases=3 bus1=118532957.1.2.4 bus2=118534798.1.2.4 length=0.029596 units=km linecode=BT503_BT503_5_2_1_3
New line.bt9417120 phases=3 bus1=118534798.1.2.4 bus2=118536352.1.2.4 length=0.030395 units=km linecode=BT503_BT503_5_2_1_3
New line.bt9417134 phases=3 bus1=118536352.1.2.4 bus2=118536429.1.2.4 length=0.030247 units=km linecode=BT503_BT503_5_2_1_3
New line.bt9417141 phases=3 bus1=118534798.1.2.4 bus2=118536807.1.2.4 length=0.004997 units=km linecode=BT315_BT315_5_2_1_3
New line.bt9417148 phases=3 bus1=118536352.1.2.4 bus2=118537416.1.2.4 length=0.004997 units=km linecode=BT315_BT315_5_2_1_3
New line.bt9417155 phases=3 bus1=118536429.1.2.4 bus2=118537654.1.2.4 length=0.004997 units=km linecode=BT315_BT315_5_2_1_3
New line.bt9523380 phases=4 bus1=2098849.1.2.3.4 bus2=129828990.1.2.3.4 length=0.004997 units=km linecode=BT518_BT518_5_3_1_4
New line.bt9523387 phases=4 bus1=129828990.1.2.3.4 bus2=129828997.1.2.3.4 length=0.015802 units=km linecode=BT518_BT518_5_3_1_4
New line.bt18861712 phases=4 bus1=153298945.1.2.3.4 bus2=153298946.1.2.3.4 length=0.0005 units=km linecode=BT513_BT513_7_3_1_4
New line.bt18864572 phases=4 bus1=153371148.1.2.3.4 bus2=153371149.1.2.3.4 length=0.0005 units=km linecode=BT514_BT514_7_3_1_4
New line.bt18944261 phases=4 bus1=155884671.1.2.3.4 bus2=2097008.1.2.3.4 length=0.0005 units=km linecode=BT518_BT518_7_3_1_4
New line.bt19104602 phases=4 bus1=160863234.1.2.3.4 bus2=160863235.1.2.3.4 length=0.0005 units=km linecode=BT514_BT514_7_3_1_4
New line.bt19194167 phases=4 bus1=164347523.1.2.3.4 bus2=2258295.1.2.3.4 length=0.0005 units=km linecode=BT513_BT513_7_3_1_4
New line.bt19194226 phases=4 bus1=164351204.1.2.3.4 bus2=164351205.1.2.3.4 length=0.0005 units=km linecode=BT514_BT509_7_3_1_4
New line.bt19497135 phases=4 bus1=2091198.1.2.3.4 bus2=173515784.1.2.3.4 length=0.006078999999999999 units=km linecode=BT514_BT514_5_3_1_4
New line.bt19497136 phases=4 bus1=173515784.1.2.3.4 bus2=173515785.1.2.3.4 length=0.012641999999999999 units=km linecode=BT514_BT514_5_3_1_4
New line.bt8938174IP phases=3 bus1=2080474.3.1.4 bus2=5008938174.3.1.4 length=0.00296 units=km linecode=IP_3
New line.bt1060588IP phases=3 bus1=2091205.1.2.4 bus2=5001060588.1.2.4 length=0.00296 units=km linecode=IP_3
New line.bt1060595IP phases=3 bus1=2091212.3.1.4 bus2=5001060595.3.1.4 length=0.00296 units=km linecode=IP_3
New line.bt8850358IP phases=3 bus1=2086438.2.3.4 bus2=5008850358.2.3.4 length=0.007 units=km linecode=IP_3
New line.bt8967603IP phases=3 bus1=2082714.1.2.4 bus2=5008967603.1.2.4 length=0.00553 units=km linecode=IP_3
New line.bt8938170IP phases=3 bus1=2080460.1.2.4 bus2=5008938170.1.2.4 length=0.00296 units=km linecode=IP_3
New line.bt8938166IP phases=3 bus1=2080446.1.2.4 bus2=5008938166.1.2.4 length=0.00296 units=km linecode=IP_3
New line.bt8938142IP phases=3 bus1=2080432.1.2.4 bus2=5008938142.1.2.4 length=0.00296 units=km linecode=IP_3
New line.bt8850409IP phases=3 bus1=2082756.3.1.4 bus2=5008850409.3.1.4 length=0.007 units=km linecode=IP_3
New line.bt1643086IP phases=3 bus1=2080481.1.2.4 bus2=5001643086.1.2.4 length=0.00296 units=km linecode=IP_3
New line.bt8850365IP phases=3 bus1=2082791.2.3.4 bus2=5008850365.2.3.4 length=0.007 units=km linecode=IP_3
New line.bt8850354IP phases=3 bus1=2086466.1.2.4 bus2=5008850354.1.2.4 length=0.007 units=km linecode=IP_3
New line.bt8850407IP phases=3 bus1=2082763.1.2.4 bus2=5008850407.1.2.4 length=0.007 units=km linecode=IP_3
New line.bt1055884IP phases=3 bus1=2082721.2.3.4 bus2=5001055884.2.3.4 length=0.00553 units=km linecode=IP_3
New line.bt8938131IP phases=3 bus1=2080425.2.3.4 bus2=5008938131.2.3.4 length=0.00296 units=km linecode=IP_3
New line.bt8938076IP phases=3 bus1=2080439.3.1.4 bus2=5008938076.3.1.4 length=0.00296 units=km linecode=IP_3
New line.bt8938168IP phases=3 bus1=2080453.3.1.4 bus2=5008938168.3.1.4 length=0.00296 units=km linecode=IP_3
New line.bt1055870IP phases=3 bus1=2082707.1.2.4 bus2=5001055870.1.2.4 length=0.00553 units=km linecode=IP_3
New line.bt8850367IP phases=3 bus1=2082784.1.2.4 bus2=5008850367.1.2.4 length=0.007 units=km linecode=IP_3
New line.bt8938172IP phases=3 bus1=2080467.3.1.4 bus2=5008938172.3.1.4 length=0.00296 units=km linecode=IP_3
New line.bt8850192IP phases=3 bus1=2095090.2.3.4 bus2=5008850192.2.3.4 length=0.007 units=km linecode=IP_3
New line.bt8850331IP phases=3 bus1=2097036.2.3.4 bus2=5008850331.2.3.4 length=0.007 units=km linecode=IP_3
New line.bt8850318IP phases=3 bus1=2097071.2.3.4 bus2=5008850318.2.3.4 length=0.007 units=km linecode=IP_3
New line.bt8850249IP phases=3 bus1=2099003.2.3.4 bus2=5008850249.2.3.4 length=0.007 units=km linecode=IP_3
New line.bt8850276IP phases=3 bus1=2101278.3.1.4 bus2=5008850276.3.1.4 length=0.007 units=km linecode=IP_3
New line.bt8850290IP phases=3 bus1=2101271.1.2.4 bus2=5008850290.1.2.4 length=0.007 units=km linecode=IP_3
New line.bt1050459IP phases=3 bus1=2073005.3.1.4 bus2=5001050459.3.1.4 length=0.00218 units=km linecode=IP_3
New line.bt8852776IP phases=3 bus1=2105541.2.3.4 bus2=5008852776.2.3.4 length=0.007 units=km linecode=IP_3
New line.bt1062702IP phases=3 bus1=2094257.1.2.4 bus2=5001062702.1.2.4 length=0.00296 units=km linecode=IP_3
New line.bt8852752IP phases=3 bus1=2258274.2.3.4 bus2=5008852752.2.3.4 length=0.007 units=km linecode=IP_3
New line.bt8850346IP phases=3 bus1=2086494.1.2.4 bus2=5008850346.1.2.4 length=0.007 units=km linecode=IP_3
New line.bt8850300IP phases=3 bus1=2101257.2.3.4 bus2=5008850300.2.3.4 length=0.007 units=km linecode=IP_3
New line.bt8969444IP phases=3 bus1=2095097.1.2.4 bus2=5008969444.1.2.4 length=0.00553 units=km linecode=IP_3
New line.bt8968332IP phases=3 bus1=2072998.3.1.4 bus2=5008968332.3.1.4 length=0.00296 units=km linecode=IP_3
New line.bt8852747IP phases=3 bus1=2258302.1.2.4 bus2=5008852747.1.2.4 length=0.00553 units=km linecode=IP_3
New line.bt8084397IP phases=3 bus1=2072956.3.1.4 bus2=5008084397.3.1.4 length=0.00218 units=km linecode=IP_3
New line.bt8848129IP phases=3 bus1=2098856.2.3.4 bus2=5008848129.2.3.4 length=0.007 units=km linecode=IP_3
New line.bt1066069IP phases=3 bus1=2099024.2.3.4 bus2=5001066069.2.3.4 length=0.0033 units=km linecode=IP_3
New line.bt8968477IP phases=3 bus1=2072914.2.3.4 bus2=5008968477.2.3.4 length=0.00296 units=km linecode=IP_3
New line.bt8852751IP phases=3 bus1=2258267.1.2.4 bus2=5008852751.1.2.4 length=0.007 units=km linecode=IP_3
New line.bt8852761IP phases=3 bus1=2105457.1.2.4 bus2=5008852761.1.2.4 length=0.007 units=km linecode=IP_3
New line.bt2028716IP phases=3 bus1=2072963.3.1.4 bus2=5002028716.3.1.4 length=0.00218 units=km linecode=IP_3
New line.bt8848063IP phases=3 bus1=2098828.2.3.4 bus2=5008848063.2.3.4 length=0.007 units=km linecode=IP_3
New line.bt8852762IP phases=3 bus1=2105464.2.3.4 bus2=5008852762.2.3.4 length=0.007 units=km linecode=IP_3
New line.bt1060609IP phases=3 bus1=2091226.1.2.4 bus2=5001060609.1.2.4 length=0.00296 units=km linecode=IP_3
New line.bt8968218IP phases=3 bus1=2078633.3.1.4 bus2=5008968218.3.1.4 length=0.00296 units=km linecode=IP_3
New line.bt8848017IP phases=3 bus1=2098793.1.2.4 bus2=5008848017.1.2.4 length=0.007 units=km linecode=IP_3
New line.bt1050410IP phases=3 bus1=2072935.1.2.4 bus2=5001050410.1.2.4 length=0.00218 units=km linecode=IP_3
New line.bt8852766IP phases=3 bus1=2105492.3.1.4 bus2=5008852766.3.1.4 length=0.007 units=km linecode=IP_3
New line.bt8850412IP phases=3 bus1=2078675.3.1.4 bus2=5008850412.3.1.4 length=0.007 units=km linecode=IP_3
New line.bt8852759IP phases=3 bus1=2105443.2.3.4 bus2=5008852759.2.3.4 length=0.007 units=km linecode=IP_3
New line.bt1062716IP phases=3 bus1=2094271.1.2.4 bus2=5001062716.1.2.4 length=0.00296 units=km linecode=IP_3
New line.bt8968233IP phases=3 bus1=2078619.3.1.4 bus2=5008968233.3.1.4 length=0.00296 units=km linecode=IP_3
New line.bt1062695IP phases=3 bus1=2094250.1.2.4 bus2=5001062695.1.2.4 length=0.00296 units=km linecode=IP_3
New line.bt8850274IP phases=3 bus1=2305741.1.2.4 bus2=5008850274.1.2.4 length=0.007 units=km linecode=IP_3
New line.bt1062681IP phases=3 bus1=2094236.1.2.4 bus2=5001062681.1.2.4 length=0.00296 units=km linecode=IP_3
New line.bt1057928IP phases=3 bus1=2086445.3.1.4 bus2=5001057928.3.1.4 length=0.00553 units=km linecode=IP_3
New line.bt8852763IP phases=3 bus1=2105471.3.1.4 bus2=5008852763.3.1.4 length=0.007 units=km linecode=IP_3
New line.bt8850315IP phases=3 bus1=2097078.3.1.4 bus2=5008850315.3.1.4 length=0.007 units=km linecode=IP_3
New line.bt8850322IP phases=3 bus1=2097064.1.2.4 bus2=5008850322.1.2.4 length=0.007 units=km linecode=IP_3
New line.bt8850408IP phases=3 bus1=2082749.2.3.4 bus2=5008850408.2.3.4 length=0.007 units=km linecode=IP_3
New line.bt8852779IP phases=3 bus1=2105555.3.1.4 bus2=5008852779.3.1.4 length=0.007 units=km linecode=IP_3
New line.bt8850232IP phases=3 bus1=2098989.2.3.4 bus2=5008850232.2.3.4 length=0.007 units=km linecode=IP_3
New line.bt8848035IP phases=3 bus1=2098800.2.3.4 bus2=5008848035.2.3.4 length=0.007 units=km linecode=IP_3
New line.bt1062709IP phases=3 bus1=2094264.2.3.4 bus2=5001062709.2.3.4 length=0.00296 units=km linecode=IP_3
New line.bt8850347IP phases=3 bus1=2086487.2.3.4 bus2=5008850347.2.3.4 length=0.007 units=km linecode=IP_3
New line.bt8848070IP phases=3 bus1=2098835.3.1.4 bus2=5008848070.3.1.4 length=0.007 units=km linecode=IP_3
New line.bt8850307IP phases=3 bus1=2101222.1.2.4 bus2=5008850307.1.2.4 length=0.007 units=km linecode=IP_3
New line.bt8968490IP phases=3 bus1=2072879.3.1.4 bus2=5008968490.3.1.4 length=0.00296 units=km linecode=IP_3
New line.bt8850226IP phases=3 bus1=2095111.1.2.4 bus2=5008850226.1.2.4 length=0.007 units=km linecode=IP_3
New line.bt1062688IP phases=3 bus1=2094243.1.2.4 bus2=5001062688.1.2.4 length=0.00296 units=km linecode=IP_3
New line.bt1204228IP phases=3 bus1=2309976.3.1.4 bus2=5001204228.3.1.4 length=0.00553 units=km linecode=IP_3
New line.bt8850195IP phases=3 bus1=2095104.1.2.4 bus2=5008850195.1.2.4 length=0.007 units=km linecode=IP_3
New line.bt1066097IP phases=3 bus1=2099024.2.3.4 bus2=5001066097.2.3.4 length=0.0033 units=km linecode=IP_3
New line.bt8968245IP phases=3 bus1=2319013.2.3.4 bus2=5008968245.2.3.4 length=0.00296 units=km linecode=IP_3
New line.bt8850406IP phases=3 bus1=2082770.3.1.4 bus2=5008850406.3.1.4 length=0.007 units=km linecode=IP_3
New line.bt8968418IP phases=3 bus1=2072970.3.1.4 bus2=5008968418.3.1.4 length=0.00296 units=km linecode=IP_3
New line.bt8852764IP phases=3 bus1=2105478.1.2.4 bus2=5008852764.1.2.4 length=0.007 units=km linecode=IP_3
New line.bt8852774IP phases=3 bus1=2105534.3.1.4 bus2=5008852774.3.1.4 length=0.007 units=km linecode=IP_3
New line.bt8968415IP phases=3 bus1=2072984.2.3.4 bus2=5008968415.2.3.4 length=0.00296 units=km linecode=IP_3
New line.bt8848009IP phases=3 bus1=2098786.3.1.4 bus2=5008848009.3.1.4 length=0.007 units=km linecode=IP_3
New line.bt1060616IP phases=3 bus1=2091233.3.1.4 bus2=5001060616.3.1.4 length=0.00296 units=km linecode=IP_3
New line.bt8852755IP phases=3 bus1=2258288.1.2.4 bus2=5008852755.1.2.4 length=0.007 units=km linecode=IP_3
New line.bt8852748IP phases=3 bus1=2258253.2.3.4 bus2=5008852748.2.3.4 length=0.007 units=km linecode=IP_3
New line.bt8969437IP phases=3 bus1=2095083.2.3.4 bus2=5008969437.2.3.4 length=0.00553 units=km linecode=IP_3
New line.bt1064550IP phases=3 bus1=2097029.1.2.4 bus2=5001064550.1.2.4 length=0.00296 units=km linecode=IP_3
New line.bt8852746IP phases=3 bus1=2258309.3.1.4 bus2=5008852746.3.1.4 length=0.00553 units=km linecode=IP_3
New line.bt8968481IP phases=3 bus1=2072900.3.1.4 bus2=5008968481.3.1.4 length=0.00296 units=km linecode=IP_3
New line.bt8852754IP phases=3 bus1=2258281.3.1.4 bus2=5008852754.3.1.4 length=0.007 units=km linecode=IP_3
New line.bt8967600IP phases=3 bus1=2082728.1.2.4 bus2=5008967600.1.2.4 length=0.00553 units=km linecode=IP_3
New line.bt8850356IP phases=3 bus1=2086452.3.1.4 bus2=5008850356.3.1.4 length=0.007 units=km linecode=IP_3
New line.bt1204214IP phases=3 bus1=2309962.1.2.4 bus2=5001204214.1.2.4 length=0.00553 units=km linecode=IP_3
New line.bt8852770IP phases=3 bus1=2105520.1.2.4 bus2=5008852770.1.2.4 length=0.007 units=km linecode=IP_3
New line.bt8852778IP phases=3 bus1=2105548.2.3.4 bus2=5008852778.2.3.4 length=0.007 units=km linecode=IP_3
New line.bt8850304IP phases=3 bus1=2101250.3.1.4 bus2=5008850304.3.1.4 length=0.007 units=km linecode=IP_3
New line.bt8850297IP phases=3 bus1=2101264.1.2.4 bus2=5008850297.1.2.4 length=0.007 units=km linecode=IP_3
New line.bt8848142IP phases=3 bus1=2098863.1.2.4 bus2=5008848142.1.2.4 length=0.007 units=km linecode=IP_3
New line.bt8848076IP phases=3 bus1=2098842.3.1.4 bus2=5008848076.3.1.4 length=0.007 units=km linecode=IP_3
New line.bt1066090IP phases=3 bus1=2099024.2.3.4 bus2=5001066090.2.3.4 length=0.0033 units=km linecode=IP_3
New line.bt8968231IP phases=3 bus1=2078640.3.1.4 bus2=5008968231.3.1.4 length=0.00296 units=km linecode=IP_3
New line.bt1060581IP phases=3 bus1=2091198.3.1.4 bus2=5001060581.3.1.4 length=0.00296 units=km linecode=IP_3
New line.bt8968421IP phases=3 bus1=2072949.1.2.4 bus2=5008968421.1.2.4 length=0.00296 units=km linecode=IP_3
New line.bt8850360IP phases=3 bus1=2086431.1.2.4 bus2=5008850360.1.2.4 length=0.007 units=km linecode=IP_3
New line.bt8850328IP phases=3 bus1=155884788.3.1.4 bus2=5008850328.3.1.4 length=0.007 units=km linecode=IP_3
New line.bt8850253IP phases=3 bus1=164349998.3.1.4 bus2=5008850253.3.1.4 length=0.007 units=km linecode=IP_3
New line.bt8848148IP phases=3 bus1=2098870.1.2.4 bus2=5008848148.1.2.4 length=0.007 units=km linecode=IP_3
New line.bt8850348IP phases=3 bus1=2086480.3.1.4 bus2=5008850348.3.1.4 length=0.007 units=km linecode=IP_3
New line.bt1062737IP phases=3 bus1=2094299.3.1.4 bus2=5001062737.3.1.4 length=0.00296 units=km linecode=IP_3
New line.bt8850323IP phases=3 bus1=2097057.2.3.4 bus2=5008850323.2.3.4 length=0.007 units=km linecode=IP_3
New line.bt8850262IP phases=3 bus1=2099017.1.2.4 bus2=5008850262.1.2.4 length=0.0033 units=km linecode=IP_3
New line.bt8852771IP phases=3 bus1=2105527.2.3.4 bus2=5008852771.2.3.4 length=0.007 units=km linecode=IP_3
New line.bt8850343IP phases=3 bus1=2096994.2.3.4 bus2=5008850343.2.3.4 length=0.007 units=km linecode=IP_3
New line.bt8852765IP phases=3 bus1=2105485.2.3.4 bus2=5008852765.2.3.4 length=0.007 units=km linecode=IP_3
New line.bt8850258IP phases=3 bus1=2099017.1.2.4 bus2=5008850258.1.2.4 length=0.0033 units=km linecode=IP_3
New line.bt8850411IP phases=3 bus1=2078668.1.2.4 bus2=5008850411.1.2.4 length=0.007 units=km linecode=IP_3
New line.bt1057942IP phases=3 bus1=2086459.1.2.4 bus2=5001057942.1.2.4 length=0.00553 units=km linecode=IP_3
New line.bt8848052IP phases=3 bus1=2098814.3.1.4 bus2=5008848052.3.1.4 length=0.007 units=km linecode=IP_3
New line.bt8967596IP phases=3 bus1=2082735.3.1.4 bus2=5008967596.3.1.4 length=0.00553 units=km linecode=IP_3
New line.bt8968486IP phases=3 bus1=2072886.1.2.4 bus2=5008968486.1.2.4 length=0.00296 units=km linecode=IP_3
New line.bt8848079IP phases=3 bus1=2098849.1.2.4 bus2=5008848079.1.2.4 length=0.007 units=km linecode=IP_3
New line.bt1050438IP phases=3 bus1=2072977.3.1.4 bus2=5001050438.3.1.4 length=0.00218 units=km linecode=IP_3
New line.bt1066083IP phases=3 bus1=2099024.2.3.4 bus2=5001066083.2.3.4 length=0.0033 units=km linecode=IP_3
New line.bt8968240IP phases=3 bus1=2319020.1.2.4 bus2=5008968240.1.2.4 length=0.00296 units=km linecode=IP_3
New line.bt8969363IP phases=3 bus1=3043548.2.3.4 bus2=5008969363.2.3.4 length=0.00296 units=km linecode=IP_3
New line.bt8850326IP phases=3 bus1=2097050.1.2.4 bus2=5008850326.1.2.4 length=0.007 units=km linecode=IP_3
New line.bt8852749IP phases=3 bus1=2258260.3.1.4 bus2=5008852749.3.1.4 length=0.007 units=km linecode=IP_3
New line.bt8850306IP phases=3 bus1=2101243.2.3.4 bus2=5008850306.2.3.4 length=0.007 units=km linecode=IP_3
New line.bt8850311IP phases=3 bus1=2101215.3.1.4 bus2=5008850311.3.1.4 length=0.007 units=km linecode=IP_3
New line.bt1060602IP phases=3 bus1=2091219.2.3.4 bus2=5001060602.2.3.4 length=0.00296 units=km linecode=IP_3
New line.bt8848134IP phases=3 bus1=2098877.3.1.4 bus2=5008848134.3.1.4 length=0.007 units=km linecode=IP_3
New line.bt8852769IP phases=3 bus1=2105513.3.1.4 bus2=5008852769.3.1.4 length=0.007 units=km linecode=IP_3
New line.bt8850369IP phases=3 bus1=2082777.2.3.4 bus2=5008850369.2.3.4 length=0.007 units=km linecode=IP_3
New line.bt1066076IP phases=3 bus1=2099024.2.3.4 bus2=5001066076.2.3.4 length=0.0033 units=km linecode=IP_3
New line.bt2028709IP phases=3 bus1=2072893.1.2.4 bus2=5002028709.1.2.4 length=0.00296 units=km linecode=IP_3
New line.bt8850238IP phases=3 bus1=129833736.1.2.4 bus2=5008850238.1.2.4 length=0.007 units=km linecode=IP_3
New line.bt8852757IP phases=3 bus1=2258246.3.1.4 bus2=5008852757.3.1.4 length=0.007 units=km linecode=IP_3
New line.bt8968237IP phases=3 bus1=2319027.2.3.4 bus2=5008968237.2.3.4 length=0.00296 units=km linecode=IP_3
New line.bt8969356IP phases=3 bus1=3155590.1.2.4 bus2=5008969356.1.2.4 length=0.00296 units=km linecode=IP_3
New line.bt8848057IP phases=3 bus1=2098821.3.1.4 bus2=5008848057.3.1.4 length=0.007 units=km linecode=IP_3
New line.bt1055905IP phases=3 bus1=2082742.1.2.4 bus2=5001055905.1.2.4 length=0.00553 units=km linecode=IP_3
New line.bt8968329IP phases=3 bus1=2073026.1.2.4 bus2=5008968329.1.2.4 length=0.00296 units=km linecode=IP_3
New line.bt1204221IP phases=3 bus1=2309969.3.1.4 bus2=5001204221.3.1.4 length=0.00553 units=km linecode=IP_3
New line.bt8852768IP phases=3 bus1=2105506.2.3.4 bus2=5008852768.2.3.4 length=0.007 units=km linecode=IP_3
New line.bt8968223IP phases=3 bus1=2078661.2.3.4 bus2=5008968223.2.3.4 length=0.00296 units=km linecode=IP_3
New line.bt2028702IP phases=3 bus1=2072907.2.3.4 bus2=5002028702.2.3.4 length=0.00296 units=km linecode=IP_3
New line.bt8968314IP phases=3 bus1=2073019.2.3.4 bus2=5008968314.2.3.4 length=0.00296 units=km linecode=IP_3
New line.bt8848043IP phases=3 bus1=2098807.3.1.4 bus2=5008848043.3.1.4 length=0.007 units=km linecode=IP_3
New line.bt8852760IP phases=3 bus1=2105450.3.1.4 bus2=5008852760.3.1.4 length=0.007 units=km linecode=IP_3
New line.bt1062730IP phases=3 bus1=2094292.1.2.4 bus2=5001062730.1.2.4 length=0.00553 units=km linecode=IP_3
New line.bt8850340IP phases=3 bus1=2097001.2.3.4 bus2=5008850340.2.3.4 length=0.007 units=km linecode=IP_3
New line.bt8850333IP phases=3 bus1=2097022.1.2.4 bus2=5008850333.1.2.4 length=0.007 units=km linecode=IP_3
New line.bt8852767IP phases=3 bus1=2105499.1.2.4 bus2=5008852767.1.2.4 length=0.007 units=km linecode=IP_3
New line.bt8850410IP phases=3 bus1=2078654.2.3.4 bus2=5008850410.2.3.4 length=0.007 units=km linecode=IP_3
New line.bt8968424IP phases=3 bus1=2072928.3.1.4 bus2=5008968424.3.1.4 length=0.00296 units=km linecode=IP_3
New line.bt8850351IP phases=3 bus1=2086473.2.3.4 bus2=5008850351.2.3.4 length=0.007 units=km linecode=IP_3
New line.bt8850209IP phases=3 bus1=118536807.1.2.4 bus2=5008850209.1.2.4 length=0.0033 units=km linecode=IP_3
New line.bt8850222IP phases=3 bus1=118537654.1.2.4 bus2=5008850222.1.2.4 length=0.0033 units=km linecode=IP_3
New line.bt1062723IP phases=3 bus1=2094285.3.1.4 bus2=5001062723.3.1.4 length=0.00296 units=km linecode=IP_3
New line.bt8850267IP phases=3 bus1=2305720.1.2.4 bus2=5008850267.1.2.4 length=0.007 units=km linecode=IP_3
New line.bt8969359IP phases=3 bus1=2091800.1.2.4 bus2=5008969359.1.2.4 length=0.00296 units=km linecode=IP_3
New line.bt8850224IP phases=3 bus1=118537654.1.2.4 bus2=5008850224.1.2.4 length=0.0033 units=km linecode=IP_3
New line.bt8850270IP phases=3 bus1=158527307.2.3.4 bus2=5008850270.2.3.4 length=0.007 units=km linecode=IP_3
New line.bt8850208IP phases=3 bus1=118536807.1.2.4 bus2=5008850208.1.2.4 length=0.0033 units=km linecode=IP_3
New line.bt8850205IP phases=3 bus1=118533174.1.2.4 bus2=5008850205.1.2.4 length=0.0033 units=km linecode=IP_3
New line.bt8850201IP phases=3 bus1=118533174.1.2.4 bus2=5008850201.1.2.4 length=0.0033 units=km linecode=IP_3
New line.bt8850264IP phases=3 bus1=2305734.1.2.4 bus2=5008850264.1.2.4 length=0.007 units=km linecode=IP_3
New line.bt8850335IP phases=3 bus1=2097008.1.2.4 bus2=5008850335.1.2.4 length=0.007 units=km linecode=IP_3
New line.bt8852756IP phases=3 bus1=2258295.2.3.4 bus2=5008852756.2.3.4 length=0.007 units=km linecode=IP_3
New line.bt8850216IP phases=3 bus1=118537416.1.2.4 bus2=5008850216.1.2.4 length=0.0033 units=km linecode=IP_3
New line.bt8850213IP phases=3 bus1=118537416.1.2.4 bus2=5008850213.1.2.4 length=0.0033 units=km linecode=IP_3
