Exemplos/ULAS628/ramlig_ULAS628.dss
New line.ram2923932 phases=3 bus1=2072872.1.2.4 bus2=4002923932.1.2.4 length=0.017 units=km linecode=CABBTG05_4_2_3
New line.ram2923939 phases=3 bus1=2072886.3.1.4 bus2=4002923939.3.1.4 length=0.017 units=km linecode=CABBTG05_4_2_3
New line.ram2923946 phases=3 bus1=2072886.3.1.4 bus2=4002923946.3.1.4 length=0.017 units=km linecode=CABBTG05_4_2_3
New line.ram2923953 phases=3 bus1=2072886.3.1.4 bus2=4002923953.3.1.4 length=0.017 units=km linecode=CABBTG04_4_2_3
New line.ram2923960 phases=3 bus1=2072886.2.3.4 bus2=4002923960.2.3.4 length=0.017 units=km linecode=CABBTG04_4_2_3
New line.ram2923967 phases=3 bus1=2072886.2.3.4 bus2=4002923967.2.3.4 length=0.017 units=km linecode=CABBTG04_4_2_3
New line.ram2923974 phases=3 bus1=2072893.2.3.4 bus2=4002923974.2.3.4 length=0.017 units=km linecode=CABBTG05_4_2_3
New line.ram2923981 phases=3 bus1=2072893.3.1.4 bus2=4002923981.3.1.4 length=0.017 units=km linecode=CABBTG05_4_2_3
New line.ram2923988 phases=3 bus1=2072893.2.3.4 bus2=4002923988.2.3.4 length=0.017 units=km linecode=CABBTG05_4_2_3
New line.ram2923995 phases=3 bus1=2072893.1.2.4 bus2=4002923995.1.2.4 length=0.017 units=km linecode=CABBTG05_4_2_3
New line.ram2924002 phases=4 bus1=2072886.1.2.3.4 bus2=4002924002.1.2.3.4 length=0.017 units=km linecode=CABBTG06_4_3_4
New line.ram2924009 phases=3 bus1=2072900.3.1.4 bus2=4002924009.3.1.4 length=0.017 units=km linecode=CABBTG05_4_2_3
New line.ram2924016 phases=3 bus1=2072928.2.3.4 bus2=4002924016.2.3.4 length=0.017 units=km linecode=CABBTG04_4_2_3
New line.ram2924023 phases=3 bus1=2072928.3.1.4 bus2=4002924023.3.1.4 length=0.017 units=km linecode=CABBTG04_4_2_3
New line.ram2924037 phases=4 bus1=2072928.1.2.3.4 bus2=4002924037.1.2.3.4 length=0.017 units=km linecode=CABBTG07_4_3_4
New line.ram2924044 phases=3 bus1=2072935.1.2.4 bus2=4002924044.1.2.4 length=0.017 units=km linecode=CABBTG05_4_2_3
New line.ram2924051 phases=4 bus1=2072935.1.2.3.4 bus2=4002924051.1.2.3.4 length=0.017 units=km linecode=CABBTG06_4_3_4
New line.ram2924058 phases=3 bus1=2072928.3.1.4 bus2=4002924058.3.1.4 length=0.017 units=km linecode=CABBTG04_4_2_3
New line.ram2924065 phases=3 bus1=2072942.1.2.4 bus2=4002924065.1.2.4 length=0.017 units=km linecode=CABBTG05_4_2_3
New line.ram2924072 phases=3 bus1=2072942.2.3.4 bus2=4002924072.2.3.4 length=0.017 units=km linecode=CABBTG05_4_2_3
New line.ram2924086 phases=3 bus1=2072949.1.2.4 bus2=4002924086.1.2.4 length=0.017 units=km linecode=CABBTG04_4_2_3
New line.ram2924107 phases=4 bus1=2072949.1.2.3.4 bus2=4002924107.1.2.3.4 length=0.017 units=km linecode=CABBTG11_4_3_4
New line.ram2924114 phases=3 bus1=2072949.2.3.4 bus2=4002924114.2.3.4 length=0.017 units=km linecode=CABBTG04_4_2_3
New line.ram2924121 phases=3 bus1=2072956.2.3.4 bus2=4002924121.2.3.4 length=0.017 units=km linecode=CABBTG04_4_2_3
New line.ram2924128 phases=3 bus1=2072956.3.1.4 bus2=4002924128.3.1.4 length=0.017 units=km linecode=CABBTG05_4_2_3
New line.ram2924135 phases=3 bus1=2072956.1.2.4 bus2=4002924135.1.2.4 length=0.017 units=km linecode=CABBTG04_4_2_3
New line.ram2924142 phases=4 bus1=2072963.1.2.3.4 bus2=4002924142.1.2.3.4 length=0.017 units=km linecode=CABBTG11_4_3_4
New line.ram2924149 phases=3 bus1=2072963.3.1.4 bus2=4002924149.3.1.4 length=0.017 units=km linecode=CABBTG04_4_2_3
New line.ram2924156 phases=3 bus1=2072963.2.3.4 bus2=4002924156.2.3.4 length=0.017 units=km linecode=CABBTG04_4_2_3
New line.ram2924163 phases=3 bus1=2072970.1.2.4 bus2=4002924163.1.2.4 length=0.017 units=km linecode=CABBTG04_4_2_3
New line.ram2924170 phases=3 bus1=2072970.1.2.4 bus2=4002924170.1.2.4 length=0.017 units=km linecode=CABBTG05_4_2_3
New line.ram2924177 phases=3 bus1=2072970.2.3.4 bus2=4002924177.2.3.4 length=0.017 units=km linecode=CABBTG05_4_2_3
New line.ram2924184 phases=3 bus1=2072970.2.3.4 bus2=4002924184.2.3.4 length=0.017 units=km linecode=CABBTG05_4_2_3
New line.ram2924191 phases=3 bus1=2072977.2.3.4 bus2=4002924191.2.3.4 length=0.017 units=km linecode=CABBTG04_4_2_3
New line.ram2924198 phases=3 bus1=2072977.2.3.4 bus2=4002924198.2.3.4 length=0.017 units=km linecode=CABBTG04_4_2_3
New line.ram2924205 phases=3 bus1=2072984.1.2.4 bus2=4002924205.1.2.4 length=0.017 units=km linecode=CABBTG05_4_2_3
New line.ram2924212 phases=3 bus1=2072984.2.3.4 bus2=4002924212.2.3.4 length=0.017 units=km linecode=CABBTG05_4_2_3
New line.ram2924219 phases=3 bus1=2072998.3.1.4 bus2=4002924219.3.1.4 length=0.017 units=km linecode=CABBTG04_4_2_3
New line.ram2924226 phases=3 bus1=2072998.3.1.4 bus2=4002924226.3.1.4 length=0.017 units=km linecode=CABBTG04_4_2_3
New line.ram2924233 phases=4 bus1=2072998.1.2.3.4 bus2=4002924233.1.2.3.4 length=0.017 units=km linecode=CABBTG07_4_3_4
New line.ram2924240 phases=3 bus1=2072998.1.2.4 bus2=4002924240.1.2.4 length=0.017 units=km linecode=CABBTG04_4_2_3
New line.ram2924247 phases=3 bus1=2073005.3.1.4 bus2=4002924247.3.1.4 length=0.017 units=km linecode=CABBTG04_4_2_3
New line.ram2924254 phases=3 bus1=2073012.1.2.4 bus2=4002924254.1.2.4 length=0.017 units=km linecode=CABBTG05_4_2_3
New line.ram2924261 phases=3 bus1=2073012.1.2.4 bus2=4002924261.1.2.4 length=0.017 units=km linecode=CABBTG05_4_2_3
New line.ram2924268 phases=3 bus1=2073026.2.3.4 bus2=4002924268.2.3.4 length=0.017 units=km linecode=CABBT801_4_2_3
New line.ram2924275 phases=3 bus1=2073026.2.3.4 bus2=4002924275.2.3.4 length=0.017 units=km linecode=CABBTG05_4_2_3
New line.ram2924282 phases=3 bus1=2072998.2.3.4 bus2=4002924282.2.3.4 length=0.017 units=km linecode=CABBTG04_4_2_3
New line.ram2924289 phases=4 bus1=2073026.1.2.3.4 bus2=4002924289.1.2.3.4 length=0.017 units=km linecode=CABBTG06_4_3_4
New line.ram2924296 phases=4 bus1=2073026.1.2.3.4 bus2=4002924296.1.2.3.4 length=0.017 units=km linecode=CABBTG11_4_3_4
New line.ram2924303 phases=4 bus1=2073026.1.2.3.4 bus2=4002924303.1.2.3.4 length=0.017 units=km linecode=CABBTG11_4_3_4
New line.ram2929126 phases=3 bus1=2073019.1.2.4 bus2=4002929126.1.2.4 length=0.017 units=km linecode=CABBTG05_4_2_3
New line.ram2929140 phases=3 bus1=2073019.3.1.4 bus2=4002929140.3.1.4 length=0.017 units=km linecode=CABBTG05_4_2_3
New line.ram2929147 phases=3 bus1=2073019.1.2.4 bus2=4002929147.1.2.4 length=0.017 units=km linecode=CABBTG05_4_2_3
New line.ram2929154 phases=3 bus1=2073019.2.3.4 bus2=4002929154.2.3.4 length=0.017 units=km linecode=CABBTG05_4_2_3
New line.ram2929196 phases=3 bus1=2319013.2.3.4 bus2=4002929196.2.3.4 length=0.017 units=km linecode=CABBTG05_4_2_3
New line.ram2929203 phases=3 bus1=2319013.2.3.4 bus2=4002929203.2.3.4 length=0.017 units=km linecode=CABBTG05_4_2_3
New line.ram2929210 phases=3 bus1=2319013.3.1.4 bus2=4002929210.3.1.4 length=0.017 units=km linecode=CABBTG05_4_2_3
New line.ram2933788 phases=3 bus1=2078619.1.2.4 bus2=4002933788.1.2.4 length=0.017 units=km linecode=CABBTG05_4_2_3
New line.ram2933795 phases=3 bus1=2078619.3.1.4 bus2=4002933795.3.1.4 length=0.017 units=km linecode=CABBTG05_4_2_3
New line.ram2933802 phases=3 bus1=2078619.3.1.4 bus2=4002933802.3.1.4 length=0.017 units=km linecode=CABBTG05_4_2_3
New line.ram2933809 phases=4 bus1=2078633.1.2.3.4 bus2=4002933809.1.2.3.4 length=0.017 units=km linecode=CABBTG07_4_3_4
New line.ram2933816 phases=4 bus1=2078633.1.2.3.4 bus2=4002933816.1.2.3.4 length=0.017 units=km linecode=CABBTG07_4_3_4
New line.ram2933823 phases=4 bus1=2078640.1.2.3.4 bus2=4002933823.1.2.3.4 length=0.017 units=km linecode=CABBTG06_4_3_4
New line.ram2933830 phases=3 bus1=2078640.2.3.4 bus2=4002933830.2.3.4 length=0.017 units=km linecode=CABBTG05_4_2_3
New line.ram2933844 phases=3 bus1=2078640.1.2.4 bus2=4002933844.1.2.4 length=0.017 units=km linecode=CABBTG05_4_2_3
New line.ram2933858 phases=2 bus1=2078668.2.4 bus2=4002933858.2.4 length=0.017 units=km linecode=CABBTG01_4_1_2
New line.ram2936917 phases=3 bus1=2080432.3.1.4 bus2=4002936917.3.1.4 length=0.017 units=km linecode=CABBTG05_4_2_3
New line.ram2936924 phases=3 bus1=2080432.1.2.4 bus2=4002936924.1.2.4 length=0.017 units=km linecode=CABBTG05_4_2_3
New line.ram2936931 phases=3 bus1=2080432.3.1.4 bus2=4002936931.3.1.4 length=0.017 units=km linecode=CABBTG05_4_2_3
New line.ram2936938 phases=3 bus1=2080432.1.2.4 bus2=4002936938.1.2.4 length=0.017 units=km linecode=CABBTG05_4_2_3
...