Exemplos/ULAS628/ucbt_ULAS628.dss
New load.bt21088-1 phases=1 bus=1002936966.2.3.4 model=2 kv=0.22 kw=0.34363070776255705 pf=0.92 conn=delta status=variable vmaxpu=1.5 vminpu=0.92 daily=RES1_16
New load.bt21088-2 phases=1 bus=1002936966.2.3.4 model=3 kv=0.22 kw=0.34363070776255705 pf=0.92 conn=delta status=variable vmaxpu=1.5 vminpu=0.92 daily=RES1_16
New load.bt23117-1 phases=3 bus=1002937099.1.2.3.4 model=2 kv=0.22 kw=0.1327505707762557 pf=0.92 conn=delta status=variable vmaxpu=1.5 vminpu=0.92 daily=RES1_16
New load.bt23117-2 phases=3 bus=1002937099.1.2.3.4 model=3 kv=0.22 kw=0.1327505707762557 pf=0.92 conn=delta status=variable vmaxpu=1.5 vminpu=0.92 daily=RES1_16
New load.bt36301-1 phases=1 bus=1002937043.2.3.4 model=2 kv=0.22 kw=0.11912385844748857 pf=0.92 conn=delta status=variable vmaxpu=1.5 vminpu=0.92 daily=RES1_16
New load.bt36301-2 phases=1 bus=1002937043.2.3.4 model=3 kv=0.22 kw=0.11912385844748857 pf=0.92 conn=delta status=variable vmaxpu=1.5 vminpu=0.92 daily=RES1_16
New load.bt37947-1 phases=1 bus=1002937057.1.2.4 model=2 kv=0.22 kw=0.2677260273972603 pf=0.92 conn=delta status=variable vmaxpu=1.5 vminpu=0.92 daily=RES1_16
New load.bt37947-2 phases=1 bus=1002937057.1.2.4 model=3 kv=0.22 kw=0.2677260273972603 pf=0.92 conn=delta status=variable vmaxpu=1.5 vminpu=0.92 daily=RES1_16
New load.bt41047-1 phases=3 bus=1002937148.1.2.3.4 model=2 kv=0.22 kw=0.21292922374429227 pf=0.92 conn=delta status=variable vmaxpu=1.5 vminpu=0.92 daily=RES1_16
New load.bt41047-2 phases=3 bus=1002937148.1.2.3.4 model=3 kv=0.22 kw=0.21292922374429227 pf=0.92 conn=delta status=variable vmaxpu=1.5 vminpu=0.92 daily=RES1_16
New load.bt49236-1 phases=1 bus=1002936987.1.2.4 model=2 kv=0.22 kw=0.22624543378995432 pf=0.92 conn=delta status=variable vmaxpu=1.5 vminpu=0.92 daily=RES1_16
New load.bt49236-2 phases=1 bus=1002936987.1.2.4 model=3 kv=0.22 kw=0.22624543378995432 pf=0.92 conn=delta status=variable vmaxpu=1.5 vminpu=0.92 daily=RES1_16
New load.bt50739-1 phases=1 bus=1002936917.3.1.4 model=2 kv=0.22 kw=0.18186187214611874 pf=0.92 conn=delta status=variable vmaxpu=1.5 vminpu=0.92 daily=RES1_16
New load.bt50739-2 phases=1 bus=1002936917.3.1.4 model=3 kv=0.22 kw=0.18186187214611874 pf=0.92 conn=delta status=variable vmaxpu=1.5 vminpu=0.92 daily=RES1_16
New load.bt52172-1 phases=1 bus=1002937120.3.1.4 model=2 kv=0.22 kw=0.2000753424657534 pf=0.92 conn=delta status=variable vmaxpu=1.5 vminpu=0.92 daily=RES1_16
New load.bt52172-2 phases=1 bus=1002937120.3.1.4 model=3 kv=0.22 kw=0.2000753424657534 pf=0.92 conn=delta status=variable vmaxpu=1.5 vminpu=0.92 daily=RES1_16
New load.bt54560-1 phases=1 bus=1002936973.1.2.4 model=2 kv=0.22 kw=0.19842922374429223 pf=0.92 conn=delta status=variable vmaxpu=1.5 vminpu=0.92 daily=RES1_16
New load.bt54560-2 phases=1 bus=1002936973.1.2.4 model=3 kv=0.22 kw=0.19842922374429223 pf=0.92 conn=delta status=variable vmaxpu=1.5 vminpu=0.92 daily=RES1_16
New load.bt55781-1 phases=1 bus=1002937127.1.2.4 model=2 kv=0.22 kw=0.23360844748858448 pf=0.92 conn=delta status=variable vmaxpu=1.5 vminpu=0.92 daily=RES1_16
New load.bt55781-2 phases=1 bus=1002937127.1.2.4 model=3 kv=0.22 kw=0.23360844748858448 pf=0.92 conn=delta status=variable vmaxpu=1.5 vminpu=0.92 daily=RES1_16
New load.bt76158-1 phases=3 bus=1002937148.1.2.3.4 model=2 kv=0.22 kw=0.12299657534246573 pf=0.92 conn=delta status=variable vmaxpu=1.5 vminpu=0.92 daily=RES1_16
New load.bt76158-2 phases=3 bus=1002937148.1.2.3.4 model=3 kv=0.22 kw=0.12299657534246573 pf=0.92 conn=delta status=variable vmaxpu=1.5 vminpu=0.92 daily=RES1_16
New load.bt83120-1 phases=1 bus=1002936924.1.2.4 model=2 kv=0.22 kw=0.15443150684931506 pf=0.92 conn=delta status=variable vmaxpu=1.5 vminpu=0.92 daily=RES1_16
New load.bt83120-2 phases=1 bus=1002936924.1.2.4 model=3 kv=0.22 kw=0.15443150684931506 pf=0.92 conn=delta status=variable vmaxpu=1.5 vminpu=0.92 daily=RES1_16
New load.bt91512-1 phases=3 bus=1002937148.1.2.3.4 model=2 kv=0.22 kw=0.18885102739726028 pf=0.92 conn=delta status=variable vmaxpu=1.5 vminpu=0.92 daily=RES1_16
New load.bt91512-2 phases=3 bus=1002937148.1.2.3.4 model=3 kv=0.22 kw=0.18885102739726028 pf=0.92 conn=delta status=variable vmaxpu=1.5 vminpu=0.92 daily=RES1_16
New load.bt99985-1 phases=1 bus=1002937085.1.2.4 model=2 kv=0.22 kw=0.1195017123287671 pf=0.92 conn=delta status=variable vmaxpu=1.5 vminpu=0.92 daily=RES1_16
New load.bt99985-2 phases=1 bus=1002937085.1.2.4 model=3 kv=0.22 kw=0.1195017123287671 pf=0.92 conn=delta status=variable vmaxpu=1.5 vminpu=0.92 daily=RES1_16
New load.bt102815-1 phases=1 bus=1002937022.2.3.4 model=2 kv=0.22 kw=0.13433219178082192 pf=0.92 conn=delta status=variable vmaxpu=1.5 vminpu=0.92 daily=RES1_16
New load.bt102815-2 phases=1 bus=1002937022.2.3.4 model=3 kv=0.22 kw=0.13433219178082192 pf=0.92 conn=delta status=variable vmaxpu=1.5 vminpu=0.92 daily=RES1_16
New load.bt119690-1 phases=1 bus=1002937015.1.2.4 model=2 kv=0.22 kw=0.08970148401826485 pf=0.92 conn=delta status=variable vmaxpu=1.5 vminpu=0.92 daily=RES1_16
...